* NGSPICE file created from heichips25_bagel.ext - technology: ihp-sg13g2

* Black-box entry subcircuit for sg13g2_decap_8 abstract view
.subckt sg13g2_decap_8 VDD VSS
.ends

* Black-box entry subcircuit for sg13g2_nor3_1 abstract view
.subckt sg13g2_nor3_1 A B C Y VDD VSS
.ends

* Black-box entry subcircuit for sg13g2_decap_4 abstract view
.subckt sg13g2_decap_4 VDD VSS
.ends

* Black-box entry subcircuit for sg13g2_nor2b_1 abstract view
.subckt sg13g2_nor2b_1 A B_N Y VDD VSS
.ends

* Black-box entry subcircuit for sg13g2_fill_1 abstract view
.subckt sg13g2_fill_1 VDD VSS
.ends

* Black-box entry subcircuit for sg13g2_tiehi abstract view
.subckt sg13g2_tiehi VDD VSS L_HI
.ends

* Black-box entry subcircuit for sg13g2_nor2_1 abstract view
.subckt sg13g2_nor2_1 A B Y VDD VSS
.ends

* Black-box entry subcircuit for sg13g2_nand2_1 abstract view
.subckt sg13g2_nand2_1 Y A B VDD VSS
.ends

* Black-box entry subcircuit for sg13g2_buf_8 abstract view
.subckt sg13g2_buf_8 A X VDD VSS
.ends

* Black-box entry subcircuit for sg13g2_fill_2 abstract view
.subckt sg13g2_fill_2 VDD VSS
.ends

* Black-box entry subcircuit for sg13g2_dfrbpq_1 abstract view
.subckt sg13g2_dfrbpq_1 RESET_B VSS VDD D Q CLK
.ends

* Black-box entry subcircuit for sg13g2_xnor2_1 abstract view
.subckt sg13g2_xnor2_1 Y A B VDD VSS
.ends

* Black-box entry subcircuit for sg13g2_o21ai_1 abstract view
.subckt sg13g2_o21ai_1 B1 VDD Y VSS A1 A2
.ends

* Black-box entry subcircuit for sg13g2_mux2_1 abstract view
.subckt sg13g2_mux2_1 A0 A1 S X VDD VSS
.ends

* Black-box entry subcircuit for sg13g2_nand2_2 abstract view
.subckt sg13g2_nand2_2 Y A B VDD VSS
.ends

* Black-box entry subcircuit for sg13g2_a21oi_1 abstract view
.subckt sg13g2_a21oi_1 VSS VDD A1 A2 Y B1
.ends

* Black-box entry subcircuit for sg13g2_nand3_1 abstract view
.subckt sg13g2_nand3_1 B C A Y VDD VSS
.ends

* Black-box entry subcircuit for sg13g2_xor2_1 abstract view
.subckt sg13g2_xor2_1 B A X VDD VSS
.ends

* Black-box entry subcircuit for sg13g2_buf_2 abstract view
.subckt sg13g2_buf_2 A X VDD VSS
.ends

* Black-box entry subcircuit for sg13g2_or2_1 abstract view
.subckt sg13g2_or2_1 VSS VDD X B A
.ends

* Black-box entry subcircuit for sg13g2_inv_1 abstract view
.subckt sg13g2_inv_1 VDD Y A VSS
.ends

* Black-box entry subcircuit for sg13g2_nor4_1 abstract view
.subckt sg13g2_nor4_1 A B C D Y VDD VSS
.ends

* Black-box entry subcircuit for sg13g2_tielo abstract view
.subckt sg13g2_tielo VDD VSS L_LO
.ends

* Black-box entry subcircuit for sg13g2_dlygate4sd3_1 abstract view
.subckt sg13g2_dlygate4sd3_1 A VDD VSS X
.ends

* Black-box entry subcircuit for sg13g2_and2_1 abstract view
.subckt sg13g2_and2_1 A B X VDD VSS
.ends

* Black-box entry subcircuit for sg13g2_buf_1 abstract view
.subckt sg13g2_buf_1 A X VDD VSS
.ends

* Black-box entry subcircuit for sg13g2_nor2_2 abstract view
.subckt sg13g2_nor2_2 A B Y VDD VSS
.ends

* Black-box entry subcircuit for sg13g2_nand2b_1 abstract view
.subckt sg13g2_nand2b_1 Y B A_N VDD VSS
.ends

* Black-box entry subcircuit for sg13g2_a21o_1 abstract view
.subckt sg13g2_a21o_1 A2 A1 B1 X VDD VSS
.ends

* Black-box entry subcircuit for sg13g2_dfrbpq_2 abstract view
.subckt sg13g2_dfrbpq_2 RESET_B VSS VDD D Q CLK
.ends

* Black-box entry subcircuit for sg13g2_or3_1 abstract view
.subckt sg13g2_or3_1 A B C X VDD VSS
.ends

* Black-box entry subcircuit for sg13g2_nor3_2 abstract view
.subckt sg13g2_nor3_2 A B C Y VDD VSS
.ends

* Black-box entry subcircuit for sg13g2_and3_2 abstract view
.subckt sg13g2_and3_2 X A B C VDD VSS
.ends

* Black-box entry subcircuit for sg13g2_a221oi_1 abstract view
.subckt sg13g2_a221oi_1 VDD VSS B2 C1 B1 A1 Y A2
.ends

* Black-box entry subcircuit for sg13g2_nand4_1 abstract view
.subckt sg13g2_nand4_1 B C A Y VDD VSS D
.ends

* Black-box entry subcircuit for sg13g2_inv_2 abstract view
.subckt sg13g2_inv_2 Y A VDD VSS
.ends

* Black-box entry subcircuit for sg13g2_a22oi_1 abstract view
.subckt sg13g2_a22oi_1 Y B1 B2 A2 A1 VDD VSS
.ends

* Black-box entry subcircuit for sg13g2_and3_1 abstract view
.subckt sg13g2_and3_1 X A B C VDD VSS
.ends

* Black-box entry subcircuit for sg13g2_nand2b_2 abstract view
.subckt sg13g2_nand2b_2 Y B VDD VSS A_N
.ends

* Black-box entry subcircuit for sg13g2_a21oi_2 abstract view
.subckt sg13g2_a21oi_2 VSS VDD B1 Y A2 A1
.ends

* Black-box entry subcircuit for sg13g2_a21o_2 abstract view
.subckt sg13g2_a21o_2 A2 A1 B1 X VDD VSS
.ends

* Black-box entry subcircuit for sg13g2_nand3b_1 abstract view
.subckt sg13g2_nand3b_1 B C Y VDD VSS A_N
.ends

* Black-box entry subcircuit for sg13g2_nor4_2 abstract view
.subckt sg13g2_nor4_2 A B C Y VSS VDD D
.ends

* Black-box entry subcircuit for sg13g2_inv_4 abstract view
.subckt sg13g2_inv_4 A Y VDD VSS
.ends

* Black-box entry subcircuit for sg13g2_nor2b_2 abstract view
.subckt sg13g2_nor2b_2 A B_N Y VDD VSS
.ends

* Black-box entry subcircuit for sg13g2_or4_1 abstract view
.subckt sg13g2_or4_1 A B C D X VDD VSS
.ends

* Black-box entry subcircuit for sg13g2_mux4_1 abstract view
.subckt sg13g2_mux4_1 S0 A0 A1 A2 A3 S1 X VDD VSS
.ends

* Black-box entry subcircuit for sg13g2_and4_1 abstract view
.subckt sg13g2_and4_1 A B C D X VDD VSS
.ends

* Black-box entry subcircuit for sg13g2_inv_8 abstract view
.subckt sg13g2_inv_8 Y A VDD VSS
.ends

.subckt heichips25_bagel VGND VPWR clk ena rst_n tmds_b tmds_clk tmds_g tmds_r ui_in[0]
+ ui_in[1] ui_in[2] ui_in[3] ui_in[4] ui_in[5] ui_in[6] ui_in[7] uio_in[0] uio_in[1]
+ uio_in[2] uio_in[3] uio_in[4] uio_in[5] uio_in[6] uio_in[7] uio_oe[0] uio_oe[1]
+ uio_oe[2] uio_oe[3] uio_oe[4] uio_oe[5] uio_oe[6] uio_oe[7] uio_out[0] uio_out[1]
+ uio_out[2] uio_out[3] uio_out[4] uio_out[5] uio_out[6] uio_out[7] uo_out[0] uo_out[1]
+ uo_out[2] uo_out[3] uo_out[4] uo_out[5] uo_out[6] uo_out[7]
XFILLER_28_907 VPWR VGND sg13g2_decap_8
X_3155_ _0919_ _0925_ _0926_ _0321_ VPWR VGND sg13g2_nor3_1
XFILLER_39_299 VPWR VGND sg13g2_decap_4
X_3086_ _0865_ _0875_ _0876_ VPWR VGND sg13g2_nor2b_1
XFILLER_27_439 VPWR VGND sg13g2_fill_1
XFILLER_36_940 VPWR VGND sg13g2_fill_1
X_4864__270 VPWR VGND net270 sg13g2_tiehi
XFILLER_35_483 VPWR VGND sg13g2_decap_4
X_3988_ _1712_ _1713_ _1714_ VPWR VGND sg13g2_nor2_1
X_2939_ _0797_ videogen.fancy_shader.video_x\[3\] _0795_ VPWR VGND sg13g2_nand2_1
XFILLER_22_199 VPWR VGND sg13g2_decap_8
X_4609_ net690 net744 _0162_ VPWR VGND sg13g2_nor2_1
XFILLER_2_538 VPWR VGND sg13g2_fill_1
XFILLER_18_439 VPWR VGND sg13g2_decap_8
X_4982__269 VPWR VGND net269 sg13g2_tiehi
XFILLER_26_30 VPWR VGND sg13g2_decap_4
XFILLER_27_940 VPWR VGND sg13g2_decap_8
XFILLER_26_472 VPWR VGND sg13g2_fill_1
XFILLER_42_965 VPWR VGND sg13g2_decap_8
XFILLER_41_442 VPWR VGND sg13g2_decap_8
Xclkbuf_3_6__f_clk_regs clknet_0_clk_regs clknet_3_6__leaf_clk_regs VPWR VGND sg13g2_buf_8
XFILLER_41_486 VPWR VGND sg13g2_decap_4
XFILLER_13_199 VPWR VGND sg13g2_fill_1
XFILLER_3_56 VPWR VGND sg13g2_decap_4
XFILLER_3_34 VPWR VGND sg13g2_fill_2
XFILLER_1_560 VPWR VGND sg13g2_fill_1
XFILLER_49_553 VPWR VGND sg13g2_decap_8
XFILLER_37_748 VPWR VGND sg13g2_decap_8
XFILLER_37_737 VPWR VGND sg13g2_fill_1
XFILLER_37_726 VPWR VGND sg13g2_decap_8
XFILLER_18_973 VPWR VGND sg13g2_decap_8
X_4960_ net379 VGND VPWR _0507_ videogen.test_lut_thingy.pixel_feeder_inst.row\[3\]\[1\]
+ _0155_ sg13g2_dfrbpq_1
XFILLER_33_910 VPWR VGND sg13g2_fill_1
X_3911_ _1637_ _1124_ _1636_ VPWR VGND sg13g2_xnor2_1
X_4891_ net214 VGND VPWR _0442_ videogen.test_lut_thingy.pixel_feeder_inst.row\[4\]\[1\]
+ _0099_ sg13g2_dfrbpq_1
XFILLER_33_965 VPWR VGND sg13g2_decap_8
X_3842_ net622 VPWR _1571_ VGND videogen.test_lut_thingy.pixel_feeder_inst.row\[39\]\[0\]
+ net580 sg13g2_o21ai_1
X_4785__32 VPWR VGND net32 sg13g2_tiehi
X_3773_ videogen.test_lut_thingy.pixel_feeder_inst.row\[57\]\[3\] net553 _1503_ VPWR
+ VGND sg13g2_nor2_1
X_2724_ videogen.test_lut_thingy.pixel_feeder_inst.row\[36\]\[1\] net780 _0744_ _0519_
+ VPWR VGND sg13g2_mux2_1
X_2655_ _0730_ _0698_ _0713_ VPWR VGND sg13g2_nand2_2
X_2586_ videogen.test_lut_thingy.pixel_feeder_inst.row\[15\]\[3\] net752 _0700_ _0631_
+ VPWR VGND sg13g2_mux2_1
X_4325_ net601 tmds_green.n126 _2021_ VPWR VGND sg13g2_nor2_1
X_4256_ VGND VPWR _1940_ _1959_ _1962_ _1961_ sg13g2_a21oi_1
X_3207_ net751 _0959_ _0960_ _0347_ VPWR VGND sg13g2_nor3_1
X_4187_ _1619_ _1720_ _1351_ _1907_ VPWR VGND sg13g2_nand3_1
X_3138_ videogen.test_lut_thingy.pixel_feeder_inst.v_counter\[2\] videogen.test_lut_thingy.pixel_feeder_inst.v_counter\[1\]
+ videogen.test_lut_thingy.pixel_feeder_inst.v_counter\[0\] _0913_ VPWR VGND sg13g2_nor3_1
XFILLER_28_748 VPWR VGND sg13g2_decap_8
XFILLER_42_217 VPWR VGND sg13g2_decap_8
X_3069_ tmds_red.n132 tmds_red.n114 _0859_ VPWR VGND sg13g2_xor2_1
XFILLER_24_932 VPWR VGND sg13g2_decap_8
XFILLER_23_442 VPWR VGND sg13g2_decap_8
XFILLER_3_869 VPWR VGND sg13g2_decap_8
Xfanout650 clk_video net650 VPWR VGND sg13g2_buf_8
Xfanout672 net673 net672 VPWR VGND sg13g2_buf_2
Xfanout694 clockdiv.q2temp net694 VPWR VGND sg13g2_buf_8
Xfanout683 net694 net683 VPWR VGND sg13g2_buf_8
Xfanout661 net663 net661 VPWR VGND sg13g2_buf_8
XFILLER_18_214 VPWR VGND sg13g2_decap_8
XFILLER_19_726 VPWR VGND sg13g2_decap_4
XFILLER_37_73 VPWR VGND sg13g2_decap_8
XFILLER_18_258 VPWR VGND sg13g2_decap_4
XFILLER_42_762 VPWR VGND sg13g2_decap_8
XFILLER_15_987 VPWR VGND sg13g2_decap_8
XFILLER_18_1015 VPWR VGND sg13g2_decap_8
XFILLER_30_902 VPWR VGND sg13g2_decap_8
XFILLER_30_979 VPWR VGND sg13g2_decap_8
X_5090_ net801 VGND VPWR serialize.n428\[5\] serialize.n414\[3\] clknet_3_7__leaf_clk_regs
+ sg13g2_dfrbpq_1
X_4110_ _1806_ _1826_ _1829_ _1833_ VPWR VGND sg13g2_nor3_1
X_4041_ VGND VPWR _1764_ _1757_ _1749_ sg13g2_or2_1
XFILLER_37_512 VPWR VGND sg13g2_fill_2
XFILLER_49_394 VPWR VGND sg13g2_decap_8
XFILLER_37_545 VPWR VGND sg13g2_decap_4
X_4943_ net57 VGND VPWR _0490_ videogen.test_lut_thingy.pixel_feeder_inst.row\[12\]\[1\]
+ _0147_ sg13g2_dfrbpq_1
XFILLER_21_902 VPWR VGND sg13g2_fill_1
X_4874_ net247 VGND VPWR _0425_ videogen.test_lut_thingy.pixel_feeder_inst.row\[53\]\[0\]
+ _0082_ sg13g2_dfrbpq_1
XFILLER_21_957 VPWR VGND sg13g2_decap_8
XFILLER_32_272 VPWR VGND sg13g2_decap_4
XFILLER_32_283 VPWR VGND sg13g2_decap_4
X_3825_ videogen.test_lut_thingy.pixel_feeder_inst.row\[21\]\[0\] net555 _1554_ VPWR
+ VGND sg13g2_nor2_1
X_3756_ net615 VPWR _1486_ VGND videogen.test_lut_thingy.pixel_feeder_inst.row\[10\]\[3\]
+ net561 sg13g2_o21ai_1
X_2707_ net759 videogen.test_lut_thingy.pixel_feeder_inst.row\[33\]\[3\] _0741_ _0533_
+ VPWR VGND sg13g2_mux2_1
X_3687_ net596 VPWR _1417_ VGND videogen.test_lut_thingy.pixel_feeder_inst.row\[54\]\[1\]
+ net560 sg13g2_o21ai_1
X_2638_ videogen.test_lut_thingy.pixel_feeder_inst.row\[20\]\[3\] net755 _0724_ _0585_
+ VPWR VGND sg13g2_mux2_1
X_4716__151 VPWR VGND net151 sg13g2_tiehi
XFILLER_0_828 VPWR VGND sg13g2_decap_8
X_2569_ _0684_ videogen.test_lut_thingy.pixel_feeder_inst.h_pix\[5\] _0681_ VPWR VGND
+ sg13g2_xnor2_1
X_4308_ tmds_blue.n132 net605 _2008_ VPWR VGND sg13g2_xor2_1
X_4239_ VPWR _1946_ _1945_ VGND sg13g2_inv_1
XFILLER_24_740 VPWR VGND sg13g2_decap_8
XFILLER_12_946 VPWR VGND sg13g2_decap_8
XFILLER_23_20 VPWR VGND sg13g2_fill_1
XFILLER_24_784 VPWR VGND sg13g2_decap_8
XFILLER_11_445 VPWR VGND sg13g2_decap_8
XFILLER_3_677 VPWR VGND sg13g2_decap_8
XFILLER_2_132 VPWR VGND sg13g2_decap_8
X_4988__242 VPWR VGND net242 sg13g2_tiehi
XFILLER_48_61 VPWR VGND sg13g2_decap_8
XFILLER_48_94 VPWR VGND sg13g2_decap_8
XFILLER_17_9 VPWR VGND sg13g2_decap_8
XFILLER_0_35 VPWR VGND sg13g2_fill_1
XFILLER_0_79 VPWR VGND sg13g2_fill_1
XFILLER_30_710 VPWR VGND sg13g2_decap_8
XFILLER_9_66 VPWR VGND sg13g2_fill_1
X_3610_ _1336_ _1337_ _1338_ _1339_ _1340_ VPWR VGND sg13g2_nor4_1
XFILLER_30_787 VPWR VGND sg13g2_fill_2
X_4590_ net687 net738 _0143_ VPWR VGND sg13g2_nor2_1
X_3541_ videogen.test_lut_thingy.pixel_feeder_inst.row\[61\]\[2\] net549 _1271_ VPWR
+ VGND sg13g2_nor2_1
XFILLER_7_961 VPWR VGND sg13g2_decap_8
X_3472_ _1202_ _1066_ _1200_ VPWR VGND sg13g2_nand2_1
X_5073_ net122 VGND VPWR _0620_ tmds_green.dc_balancing_reg\[2\] net648 sg13g2_dfrbpq_1
X_4024_ _1739_ VPWR _1747_ VGND _1736_ _1742_ sg13g2_o21ai_1
X_4926_ net120 VGND VPWR _0477_ videogen.test_lut_thingy.pixel_feeder_inst.row\[40\]\[0\]
+ _0134_ sg13g2_dfrbpq_1
X_4857_ net284 VGND VPWR _0408_ videogen.test_lut_thingy.pixel_feeder_inst.row\[58\]\[3\]
+ _0065_ sg13g2_dfrbpq_1
X_3808_ _1534_ _1535_ _1536_ _1537_ _1538_ VPWR VGND sg13g2_nor4_1
X_4800__374 VPWR VGND net374 sg13g2_tiehi
X_4788_ net398 VGND VPWR _0339_ videogen.test_lut_thingy.pixel_feeder_inst.row\[19\]\[1\]
+ _0039_ sg13g2_dfrbpq_1
X_3739_ videogen.test_lut_thingy.pixel_feeder_inst.row\[31\]\[3\] net574 _1469_ VPWR
+ VGND sg13g2_nor2_1
Xheichips25_bagel_24 VPWR VGND uio_oe[3] sg13g2_tielo
XFILLER_0_625 VPWR VGND sg13g2_fill_2
XFILLER_48_618 VPWR VGND sg13g2_decap_8
XFILLER_48_629 VPWR VGND sg13g2_fill_1
XFILLER_29_810 VPWR VGND sg13g2_decap_4
XFILLER_28_353 VPWR VGND sg13g2_fill_1
XFILLER_43_312 VPWR VGND sg13g2_fill_1
XFILLER_11_220 VPWR VGND sg13g2_decap_4
XFILLER_12_754 VPWR VGND sg13g2_decap_8
XFILLER_24_592 VPWR VGND sg13g2_decap_8
XFILLER_11_275 VPWR VGND sg13g2_fill_1
XFILLER_8_758 VPWR VGND sg13g2_decap_4
XFILLER_4_964 VPWR VGND sg13g2_decap_8
X_5062__240 VPWR VGND net240 sg13g2_tiehi
XFILLER_34_301 VPWR VGND sg13g2_fill_1
XFILLER_35_879 VPWR VGND sg13g2_decap_4
X_2972_ net600 VPWR _0820_ VGND _0813_ _0818_ sg13g2_o21ai_1
X_4711_ net253 VGND VPWR _0263_ tmds_green.dc_balancing_reg\[0\] net648 sg13g2_dfrbpq_1
XFILLER_30_540 VPWR VGND sg13g2_decap_4
X_4642_ net664 net715 _0195_ VPWR VGND sg13g2_nor2_1
X_4573_ net676 net728 _0126_ VPWR VGND sg13g2_nor2_1
X_3524_ videogen.test_lut_thingy.pixel_feeder_inst.row\[54\]\[2\] net560 _1254_ VPWR
+ VGND sg13g2_nor2_1
X_3455_ _1147_ VPWR _1185_ VGND _1156_ _1183_ sg13g2_o21ai_1
X_3386_ VGND VPWR _1080_ _1082_ _1116_ _1081_ sg13g2_a21oi_1
X_4713__154 VPWR VGND net154 sg13g2_tiehi
XFILLER_29_106 VPWR VGND sg13g2_decap_8
X_5125_ net798 VGND VPWR serialize.n427\[9\] serialize.n411\[7\] clknet_3_1__leaf_clk_regs
+ sg13g2_dfrbpq_1
X_5056_ net361 VGND VPWR _0603_ videogen.test_lut_thingy.pixel_feeder_inst.row\[39\]\[1\]
+ _0251_ sg13g2_dfrbpq_1
X_4007_ _1730_ _1076_ _1729_ VPWR VGND sg13g2_nand2_1
XFILLER_26_824 VPWR VGND sg13g2_fill_1
XFILLER_25_323 VPWR VGND sg13g2_fill_1
XFILLER_26_857 VPWR VGND sg13g2_fill_1
XFILLER_38_1007 VPWR VGND sg13g2_decap_8
XFILLER_26_868 VPWR VGND sg13g2_fill_2
XFILLER_40_359 VPWR VGND sg13g2_decap_8
X_4909_ net178 VGND VPWR _0460_ videogen.test_lut_thingy.pixel_feeder_inst.row\[45\]\[3\]
+ _0117_ sg13g2_dfrbpq_1
X_4978__285 VPWR VGND net285 sg13g2_tiehi
XFILLER_4_249 VPWR VGND sg13g2_decap_8
XFILLER_4_216 VPWR VGND sg13g2_decap_8
XFILLER_20_43 VPWR VGND sg13g2_fill_1
XFILLER_20_76 VPWR VGND sg13g2_decap_4
XFILLER_1_923 VPWR VGND sg13g2_decap_8
Xhold41 _0004_ VPWR VGND net446 sg13g2_dlygate4sd3_1
Xhold30 serialize.n411\[4\] VPWR VGND net435 sg13g2_dlygate4sd3_1
XFILLER_48_437 VPWR VGND sg13g2_fill_2
XFILLER_29_85 VPWR VGND sg13g2_decap_8
XFILLER_35_109 VPWR VGND sg13g2_fill_1
XFILLER_28_172 VPWR VGND sg13g2_fill_1
XFILLER_45_73 VPWR VGND sg13g2_decap_8
XFILLER_16_367 VPWR VGND sg13g2_fill_2
XFILLER_44_698 VPWR VGND sg13g2_decap_8
X_4992__227 VPWR VGND net227 sg13g2_tiehi
XFILLER_40_882 VPWR VGND sg13g2_fill_2
XFILLER_40_871 VPWR VGND sg13g2_decap_8
XFILLER_40_893 VPWR VGND sg13g2_decap_8
XFILLER_6_34 VPWR VGND sg13g2_fill_1
X_3240_ _0981_ _0982_ _0358_ VPWR VGND sg13g2_nor2_1
XFILLER_39_404 VPWR VGND sg13g2_decap_4
XFILLER_6_1005 VPWR VGND sg13g2_decap_8
X_3171_ net621 _0935_ _0938_ VPWR VGND sg13g2_and2_1
XFILLER_48_993 VPWR VGND sg13g2_decap_8
XFILLER_23_805 VPWR VGND sg13g2_decap_8
XFILLER_16_890 VPWR VGND sg13g2_fill_1
X_2955_ _0792_ VPWR _0812_ VGND videogen.test_lut_thingy.pixel_feeder_inst.state\[0\]
+ _0807_ sg13g2_o21ai_1
X_2886_ videogen.test_lut_thingy.pixel_feeder_inst.row\[13\]\[0\] net782 _0781_ _0342_
+ VPWR VGND sg13g2_mux2_1
X_4625_ net689 net741 _0178_ VPWR VGND sg13g2_nor2_1
X_4556_ net682 net733 _0109_ VPWR VGND sg13g2_nor2_1
X_3507_ VGND VPWR _1237_ _1231_ _1176_ sg13g2_or2_1
X_4487_ net685 net736 _0040_ VPWR VGND sg13g2_nor2_1
X_3438_ _1153_ VPWR _1168_ VGND _1152_ _1167_ sg13g2_o21ai_1
X_3369_ _1099_ _1097_ _1098_ VPWR VGND sg13g2_xnor2_1
X_5108_ net800 VGND VPWR serialize.n429\[5\] serialize.n417\[3\] clknet_3_1__leaf_clk_regs
+ sg13g2_dfrbpq_1
XFILLER_39_993 VPWR VGND sg13g2_decap_8
X_5039_ net229 VGND VPWR _0586_ videogen.test_lut_thingy.pixel_feeder_inst.row\[1\]\[0\]
+ _0234_ sg13g2_dfrbpq_1
XFILLER_26_643 VPWR VGND sg13g2_decap_8
XFILLER_14_849 VPWR VGND sg13g2_decap_4
XFILLER_15_21 VPWR VGND sg13g2_fill_1
XFILLER_15_65 VPWR VGND sg13g2_fill_1
XFILLER_41_679 VPWR VGND sg13g2_fill_1
Xclkbuf_3_5__f_clk_regs clknet_0_clk_regs clknet_3_5__leaf_clk_regs VPWR VGND sg13g2_buf_8
XFILLER_15_76 VPWR VGND sg13g2_fill_2
XFILLER_15_98 VPWR VGND sg13g2_decap_4
XFILLER_40_189 VPWR VGND sg13g2_decap_8
XFILLER_22_893 VPWR VGND sg13g2_decap_8
XFILLER_5_536 VPWR VGND sg13g2_fill_2
Xoutput7 net7 uio_out[0] VPWR VGND sg13g2_buf_1
Xoutput20 net20 uo_out[7] VPWR VGND sg13g2_buf_1
XFILLER_1_720 VPWR VGND sg13g2_decap_8
XFILLER_0_263 VPWR VGND sg13g2_decap_8
XFILLER_1_797 VPWR VGND sg13g2_decap_8
XFILLER_49_779 VPWR VGND sg13g2_fill_2
XFILLER_36_418 VPWR VGND sg13g2_fill_2
XFILLER_45_985 VPWR VGND sg13g2_decap_8
XFILLER_31_112 VPWR VGND sg13g2_fill_2
XFILLER_32_646 VPWR VGND sg13g2_decap_4
XFILLER_32_668 VPWR VGND sg13g2_decap_8
XFILLER_32_679 VPWR VGND sg13g2_fill_2
X_2740_ net784 videogen.test_lut_thingy.pixel_feeder_inst.row\[3\]\[0\] _0747_ _0506_
+ VPWR VGND sg13g2_mux2_1
XFILLER_31_178 VPWR VGND sg13g2_fill_2
XFILLER_9_875 VPWR VGND sg13g2_decap_8
XFILLER_12_392 VPWR VGND sg13g2_fill_2
X_2671_ _0734_ _0717_ _0731_ VPWR VGND sg13g2_nand2_2
X_4410_ net605 _2087_ _2101_ VPWR VGND sg13g2_and2_1
X_4341_ _2037_ _2017_ _2036_ VPWR VGND sg13g2_xnor2_1
X_4272_ _1977_ _1973_ _1976_ VPWR VGND sg13g2_xnor2_1
XFILLER_28_1028 VPWR VGND sg13g2_fill_1
X_3223_ net747 _0969_ _0970_ _0353_ VPWR VGND sg13g2_nor3_1
XFILLER_39_267 VPWR VGND sg13g2_fill_2
XFILLER_39_245 VPWR VGND sg13g2_decap_4
X_3154_ videogen.test_lut_thingy.pixel_feeder_inst.v_pix\[3\] _0923_ _0926_ VPWR VGND
+ sg13g2_nor2_1
X_3085_ _0875_ _0873_ _0874_ VPWR VGND sg13g2_xnor2_1
XFILLER_22_123 VPWR VGND sg13g2_fill_1
XFILLER_11_819 VPWR VGND sg13g2_fill_2
X_3987_ _1713_ _1240_ _1711_ VPWR VGND sg13g2_nand2_1
XFILLER_23_679 VPWR VGND sg13g2_decap_4
XFILLER_10_329 VPWR VGND sg13g2_decap_8
X_2938_ videogen.fancy_shader.video_x\[3\] _0795_ _0796_ VPWR VGND sg13g2_and2_1
XFILLER_22_189 VPWR VGND sg13g2_decap_4
X_2869_ videogen.test_lut_thingy.pixel_feeder_inst.row\[60\]\[2\] net762 _0778_ _0399_
+ VPWR VGND sg13g2_mux2_1
X_4608_ net691 net743 _0161_ VPWR VGND sg13g2_nor2_1
X_4539_ net680 net726 _0092_ VPWR VGND sg13g2_nor2_1
XFILLER_46_749 VPWR VGND sg13g2_fill_2
XFILLER_18_418 VPWR VGND sg13g2_decap_4
X_4843__311 VPWR VGND net311 sg13g2_tiehi
XFILLER_26_75 VPWR VGND sg13g2_decap_8
XFILLER_27_996 VPWR VGND sg13g2_decap_8
XFILLER_42_944 VPWR VGND sg13g2_decap_8
XFILLER_13_156 VPWR VGND sg13g2_fill_2
XFILLER_42_41 VPWR VGND sg13g2_fill_1
XFILLER_6_812 VPWR VGND sg13g2_decap_8
XFILLER_5_322 VPWR VGND sg13g2_decap_8
XFILLER_6_867 VPWR VGND sg13g2_fill_2
XFILLER_6_856 VPWR VGND sg13g2_decap_8
XFILLER_5_366 VPWR VGND sg13g2_decap_4
XFILLER_49_532 VPWR VGND sg13g2_decap_8
XFILLER_36_226 VPWR VGND sg13g2_decap_4
XFILLER_18_952 VPWR VGND sg13g2_decap_8
X_3910_ _1093_ _1632_ _1636_ VPWR VGND sg13g2_and2_1
X_4890_ net216 VGND VPWR _0441_ videogen.test_lut_thingy.pixel_feeder_inst.row\[4\]\[0\]
+ _0098_ sg13g2_dfrbpq_1
XFILLER_32_410 VPWR VGND sg13g2_decap_8
X_3841_ VGND VPWR _1570_ net563 videogen.test_lut_thingy.pixel_feeder_inst.row\[46\]\[0\]
+ sg13g2_or2_1
X_3772_ videogen.test_lut_thingy.pixel_feeder_inst.row\[58\]\[3\] net564 _1502_ VPWR
+ VGND sg13g2_nor2_1
XFILLER_34_1021 VPWR VGND sg13g2_decap_8
X_2723_ videogen.test_lut_thingy.pixel_feeder_inst.row\[36\]\[2\] net769 _0744_ _0520_
+ VPWR VGND sg13g2_mux2_1
X_5511_ net600 net12 VPWR VGND sg13g2_buf_1
X_2654_ net789 videogen.test_lut_thingy.pixel_feeder_inst.row\[22\]\[0\] _0729_ _0574_
+ VPWR VGND sg13g2_mux2_1
X_2585_ _0689_ _0699_ _0700_ VPWR VGND sg13g2_nor2_2
X_4324_ net569 _2020_ _0619_ VPWR VGND sg13g2_nor2_1
X_4255_ VGND VPWR _1961_ _1960_ _0889_ sg13g2_or2_1
XFILLER_41_1014 VPWR VGND sg13g2_decap_8
X_3206_ videogen.fancy_shader.n646\[1\] _0957_ _0960_ VPWR VGND sg13g2_and2_1
X_4186_ VGND VPWR _0380_ _1905_ _0381_ sg13g2_or2_1
XFILLER_28_716 VPWR VGND sg13g2_decap_8
X_3137_ net748 _0912_ _0317_ VPWR VGND sg13g2_nor2_1
XFILLER_27_226 VPWR VGND sg13g2_decap_8
XFILLER_28_727 VPWR VGND sg13g2_fill_1
XFILLER_27_259 VPWR VGND sg13g2_decap_8
XFILLER_24_911 VPWR VGND sg13g2_decap_8
X_3068_ tmds_red.n114 tmds_red.n132 _0858_ VPWR VGND sg13g2_nor2_1
XFILLER_24_988 VPWR VGND sg13g2_decap_8
XFILLER_23_498 VPWR VGND sg13g2_fill_2
XFILLER_10_126 VPWR VGND sg13g2_fill_2
XFILLER_12_66 VPWR VGND sg13g2_fill_1
XFILLER_12_99 VPWR VGND sg13g2_decap_4
XFILLER_3_848 VPWR VGND sg13g2_decap_4
Xfanout651 net652 net651 VPWR VGND sg13g2_buf_8
Xfanout640 net642 net640 VPWR VGND sg13g2_buf_8
X_4810__354 VPWR VGND net354 sg13g2_tiehi
Xfanout662 net663 net662 VPWR VGND sg13g2_buf_1
Xfanout684 net693 net684 VPWR VGND sg13g2_buf_8
Xfanout673 net694 net673 VPWR VGND sg13g2_buf_8
Xfanout695 net696 net695 VPWR VGND sg13g2_buf_8
XFILLER_37_52 VPWR VGND sg13g2_fill_1
XFILLER_15_966 VPWR VGND sg13g2_decap_8
XFILLER_30_958 VPWR VGND sg13g2_decap_8
XFILLER_10_660 VPWR VGND sg13g2_decap_4
XFILLER_10_682 VPWR VGND sg13g2_decap_4
XFILLER_5_141 VPWR VGND sg13g2_fill_1
XFILLER_2_881 VPWR VGND sg13g2_decap_8
X_4040_ _1728_ _1749_ _1763_ VPWR VGND sg13g2_nor2b_1
XFILLER_49_373 VPWR VGND sg13g2_decap_8
XFILLER_37_524 VPWR VGND sg13g2_decap_8
XFILLER_37_568 VPWR VGND sg13g2_fill_2
X_4942_ net61 VGND VPWR _0489_ videogen.test_lut_thingy.pixel_feeder_inst.row\[12\]\[0\]
+ _0146_ sg13g2_dfrbpq_1
X_4873_ net249 VGND VPWR _0424_ videogen.test_lut_thingy.pixel_feeder_inst.row\[54\]\[3\]
+ _0081_ sg13g2_dfrbpq_1
XFILLER_21_936 VPWR VGND sg13g2_decap_8
X_3824_ videogen.test_lut_thingy.pixel_feeder_inst.row\[23\]\[0\] net579 _1553_ VPWR
+ VGND sg13g2_nor2_1
XFILLER_20_446 VPWR VGND sg13g2_fill_2
X_3755_ net592 _1479_ _1484_ _1485_ VPWR VGND sg13g2_nor3_1
XFILLER_20_468 VPWR VGND sg13g2_fill_1
X_3686_ _1412_ _1413_ _1414_ _1415_ _1416_ VPWR VGND sg13g2_nor4_1
X_2706_ _0741_ _0706_ _0715_ VPWR VGND sg13g2_nand2_2
X_2637_ _0714_ _0723_ _0724_ VPWR VGND sg13g2_nor2_2
XFILLER_0_807 VPWR VGND sg13g2_decap_8
X_2568_ _0636_ _0681_ _0683_ VPWR VGND sg13g2_and2_1
X_4307_ _2000_ _2007_ _0615_ VPWR VGND sg13g2_nor2b_1
X_4238_ _1945_ _1944_ _1942_ VPWR VGND sg13g2_nand2b_1
XFILLER_28_502 VPWR VGND sg13g2_decap_8
XFILLER_28_524 VPWR VGND sg13g2_decap_8
X_4169_ _1892_ _1235_ _1891_ VPWR VGND sg13g2_nand2_1
XFILLER_43_505 VPWR VGND sg13g2_fill_2
X_4907__182 VPWR VGND net182 sg13g2_tiehi
XFILLER_36_590 VPWR VGND sg13g2_decap_4
XFILLER_12_925 VPWR VGND sg13g2_decap_8
XFILLER_7_406 VPWR VGND sg13g2_decap_8
XFILLER_23_32 VPWR VGND sg13g2_decap_8
XFILLER_23_295 VPWR VGND sg13g2_decap_4
XFILLER_23_76 VPWR VGND sg13g2_fill_2
XFILLER_20_991 VPWR VGND sg13g2_decap_8
XFILLER_2_122 VPWR VGND sg13g2_fill_1
XFILLER_3_656 VPWR VGND sg13g2_decap_8
XFILLER_2_199 VPWR VGND sg13g2_fill_1
XFILLER_0_14 VPWR VGND sg13g2_decap_8
XFILLER_47_899 VPWR VGND sg13g2_decap_8
XFILLER_46_376 VPWR VGND sg13g2_fill_2
XFILLER_14_262 VPWR VGND sg13g2_decap_4
XFILLER_15_796 VPWR VGND sg13g2_fill_2
XFILLER_42_593 VPWR VGND sg13g2_decap_8
XFILLER_7_940 VPWR VGND sg13g2_decap_8
X_3540_ net619 VPWR _1270_ VGND videogen.test_lut_thingy.pixel_feeder_inst.row\[63\]\[2\]
+ net572 sg13g2_o21ai_1
XFILLER_11_991 VPWR VGND sg13g2_decap_8
XFILLER_6_472 VPWR VGND sg13g2_decap_4
X_3471_ _1200_ _1197_ _1066_ _1201_ VPWR VGND sg13g2_a21o_1
X_5072_ net146 VGND VPWR _0619_ tmds_green.dc_balancing_reg\[1\] net648 sg13g2_dfrbpq_2
X_4023_ _1735_ _1736_ _1739_ _1742_ _1746_ VPWR VGND sg13g2_nor4_1
XFILLER_49_181 VPWR VGND sg13g2_fill_2
XFILLER_37_354 VPWR VGND sg13g2_decap_8
XFILLER_25_516 VPWR VGND sg13g2_decap_4
XFILLER_37_398 VPWR VGND sg13g2_fill_1
XFILLER_25_549 VPWR VGND sg13g2_decap_4
X_4925_ net124 VGND VPWR _0476_ videogen.test_lut_thingy.pixel_feeder_inst.row\[0\]\[3\]
+ _0133_ sg13g2_dfrbpq_1
X_4856_ net286 VGND VPWR _0407_ videogen.test_lut_thingy.pixel_feeder_inst.row\[58\]\[2\]
+ _0064_ sg13g2_dfrbpq_1
XFILLER_20_232 VPWR VGND sg13g2_fill_1
XFILLER_21_766 VPWR VGND sg13g2_fill_1
X_3807_ videogen.test_lut_thingy.pixel_feeder_inst.row\[42\]\[3\] net564 _1537_ VPWR
+ VGND sg13g2_nor2_1
X_4787_ net400 VGND VPWR _0338_ videogen.test_lut_thingy.pixel_feeder_inst.row\[19\]\[0\]
+ _0038_ sg13g2_dfrbpq_1
X_3738_ net615 VPWR _1468_ VGND videogen.test_lut_thingy.pixel_feeder_inst.row\[29\]\[3\]
+ net551 sg13g2_o21ai_1
XFILLER_4_409 VPWR VGND sg13g2_decap_8
Xheichips25_bagel_25 VPWR VGND uio_oe[4] sg13g2_tielo
X_3669_ videogen.test_lut_thingy.pixel_feeder_inst.h_pix\[5\] _1398_ _1399_ VPWR VGND
+ sg13g2_nor2_1
XFILLER_0_604 VPWR VGND sg13g2_decap_8
XFILLER_29_855 VPWR VGND sg13g2_fill_2
XFILLER_16_538 VPWR VGND sg13g2_fill_1
XFILLER_24_560 VPWR VGND sg13g2_decap_8
XFILLER_24_571 VPWR VGND sg13g2_fill_1
XFILLER_15_1008 VPWR VGND sg13g2_decap_8
XFILLER_8_715 VPWR VGND sg13g2_decap_8
XFILLER_11_265 VPWR VGND sg13g2_fill_2
XFILLER_7_269 VPWR VGND sg13g2_fill_1
XFILLER_7_258 VPWR VGND sg13g2_fill_1
XFILLER_4_943 VPWR VGND sg13g2_decap_8
XFILLER_3_453 VPWR VGND sg13g2_decap_8
XFILLER_47_663 VPWR VGND sg13g2_decap_8
XFILLER_47_652 VPWR VGND sg13g2_fill_2
XFILLER_46_140 VPWR VGND sg13g2_decap_8
XFILLER_19_343 VPWR VGND sg13g2_decap_8
XFILLER_46_195 VPWR VGND sg13g2_fill_1
XFILLER_34_335 VPWR VGND sg13g2_fill_1
X_2971_ VPWR _0819_ _0818_ VGND sg13g2_inv_1
X_4710_ net653 net704 _0261_ VPWR VGND sg13g2_nor2_1
X_4641_ net661 net712 _0194_ VPWR VGND sg13g2_nor2_1
XFILLER_30_585 VPWR VGND sg13g2_decap_8
X_4572_ net685 net736 _0125_ VPWR VGND sg13g2_nor2_1
XFILLER_7_781 VPWR VGND sg13g2_decap_8
X_3523_ _1253_ net624 net626 VPWR VGND sg13g2_nand2b_1
X_3454_ _1147_ _1156_ _1183_ _1184_ VPWR VGND sg13g2_or3_1
X_3385_ _1088_ net542 _1115_ VPWR VGND sg13g2_nor2_1
X_5124_ net798 VGND VPWR serialize.n427\[8\] serialize.n411\[6\] clknet_3_1__leaf_clk_regs
+ sg13g2_dfrbpq_1
X_5055_ net377 VGND VPWR _0602_ videogen.test_lut_thingy.pixel_feeder_inst.row\[39\]\[0\]
+ _0250_ sg13g2_dfrbpq_1
X_4006_ _1039_ _1068_ _1725_ _1729_ VPWR VGND sg13g2_nor3_2
XFILLER_25_335 VPWR VGND sg13g2_fill_2
X_4908_ net180 VGND VPWR _0459_ videogen.test_lut_thingy.pixel_feeder_inst.row\[45\]\[2\]
+ _0116_ sg13g2_dfrbpq_1
Xclkbuf_3_4__f_clk_regs clknet_0_clk_regs clknet_3_4__leaf_clk_regs VPWR VGND sg13g2_buf_8
XFILLER_21_574 VPWR VGND sg13g2_decap_8
X_4839_ net319 VGND VPWR _0390_ videogen.test_lut_thingy.pixel_feeder_inst.row\[62\]\[1\]
+ _0047_ sg13g2_dfrbpq_1
XFILLER_21_596 VPWR VGND sg13g2_decap_8
XFILLER_4_228 VPWR VGND sg13g2_decap_4
XFILLER_1_902 VPWR VGND sg13g2_decap_8
XFILLER_20_55 VPWR VGND sg13g2_decap_8
XFILLER_0_434 VPWR VGND sg13g2_decap_8
XFILLER_1_979 VPWR VGND sg13g2_decap_8
XFILLER_49_939 VPWR VGND sg13g2_decap_8
Xhold31 serialize.n417\[3\] VPWR VGND net436 sg13g2_dlygate4sd3_1
Xhold20 serialize.n414\[0\] VPWR VGND net425 sg13g2_dlygate4sd3_1
XFILLER_0_478 VPWR VGND sg13g2_fill_1
XFILLER_29_31 VPWR VGND sg13g2_decap_8
XFILLER_29_64 VPWR VGND sg13g2_decap_8
XFILLER_29_663 VPWR VGND sg13g2_fill_2
X_4881__233 VPWR VGND net233 sg13g2_tiehi
XFILLER_28_151 VPWR VGND sg13g2_fill_1
XFILLER_28_162 VPWR VGND sg13g2_decap_4
XFILLER_45_63 VPWR VGND sg13g2_decap_4
XFILLER_45_52 VPWR VGND sg13g2_decap_8
XFILLER_43_143 VPWR VGND sg13g2_fill_2
XFILLER_31_305 VPWR VGND sg13g2_fill_1
XFILLER_39_416 VPWR VGND sg13g2_fill_1
X_3170_ net621 _0935_ _0937_ VPWR VGND sg13g2_nor2_1
XFILLER_39_427 VPWR VGND sg13g2_fill_2
XFILLER_48_972 VPWR VGND sg13g2_decap_8
XFILLER_35_633 VPWR VGND sg13g2_decap_4
XFILLER_47_493 VPWR VGND sg13g2_fill_1
XFILLER_22_316 VPWR VGND sg13g2_fill_1
XFILLER_15_390 VPWR VGND sg13g2_decap_8
X_2954_ VGND VPWR _0794_ _0811_ _0002_ _0371_ sg13g2_a21oi_1
X_2885_ videogen.test_lut_thingy.pixel_feeder_inst.row\[13\]\[1\] net772 _0781_ _0343_
+ VPWR VGND sg13g2_mux2_1
X_4624_ net688 net740 _0177_ VPWR VGND sg13g2_nor2_1
X_4555_ net682 net733 _0108_ VPWR VGND sg13g2_nor2_1
X_3506_ _1236_ _1219_ _1233_ VPWR VGND sg13g2_xnor2_1
X_4486_ net685 net736 _0039_ VPWR VGND sg13g2_nor2_1
X_3437_ _1148_ _1155_ _1167_ VPWR VGND sg13g2_nor2_1
XFILLER_44_1023 VPWR VGND sg13g2_decap_4
X_3368_ _1098_ videogen.fancy_shader.video_y\[9\] videogen.fancy_shader.n646\[9\]
+ VPWR VGND sg13g2_xnor2_1
X_5107_ net796 VGND VPWR serialize.n429\[4\] serialize.n417\[2\] clknet_3_2__leaf_clk_regs
+ sg13g2_dfrbpq_1
XFILLER_39_972 VPWR VGND sg13g2_decap_8
X_3299_ net611 videogen.fancy_shader.video_y\[3\] _1029_ VPWR VGND sg13g2_xor2_1
X_5038_ net236 VGND VPWR _0585_ videogen.test_lut_thingy.pixel_feeder_inst.row\[20\]\[3\]
+ _0233_ sg13g2_dfrbpq_1
XFILLER_38_471 VPWR VGND sg13g2_decap_8
XFILLER_14_828 VPWR VGND sg13g2_fill_1
XFILLER_26_677 VPWR VGND sg13g2_decap_8
XFILLER_22_872 VPWR VGND sg13g2_decap_8
XFILLER_21_371 VPWR VGND sg13g2_decap_8
XFILLER_21_382 VPWR VGND sg13g2_fill_1
XFILLER_31_21 VPWR VGND sg13g2_fill_1
XFILLER_31_32 VPWR VGND sg13g2_decap_8
XFILLER_31_98 VPWR VGND sg13g2_decap_8
Xoutput8 net8 uio_out[2] VPWR VGND sg13g2_buf_1
Xoutput10 net10 uio_out[4] VPWR VGND sg13g2_buf_1
XFILLER_1_776 VPWR VGND sg13g2_decap_8
XFILLER_49_758 VPWR VGND sg13g2_fill_2
XFILLER_17_622 VPWR VGND sg13g2_decap_8
XFILLER_45_964 VPWR VGND sg13g2_decap_8
XFILLER_17_644 VPWR VGND sg13g2_fill_2
XFILLER_32_625 VPWR VGND sg13g2_decap_8
XFILLER_9_821 VPWR VGND sg13g2_decap_8
X_2670_ net786 videogen.test_lut_thingy.pixel_feeder_inst.row\[25\]\[0\] _0733_ _0562_
+ VPWR VGND sg13g2_mux2_1
X_4340_ _2034_ _2035_ _2036_ VPWR VGND sg13g2_nor2b_1
X_4271_ _1976_ tmds_red.dc_balancing_reg\[4\] _1975_ VPWR VGND sg13g2_xnor2_1
X_3222_ videogen.fancy_shader.n646\[7\] _0968_ _0970_ VPWR VGND sg13g2_and2_1