* NGSPICE file created from heichips25_bagel.ext - technology: ihp-sg13g2

* Black-box entry subcircuit for sg13g2_decap_8 abstract view
.subckt sg13g2_decap_8 VDD VSS
.ends

* Black-box entry subcircuit for sg13g2_inv_1 abstract view
.subckt sg13g2_inv_1 VDD Y A VSS
.ends

* Black-box entry subcircuit for sg13g2_mux2_1 abstract view
.subckt sg13g2_mux2_1 A0 A1 S X VDD VSS
.ends

* Black-box entry subcircuit for sg13g2_decap_4 abstract view
.subckt sg13g2_decap_4 VDD VSS
.ends

* Black-box entry subcircuit for sg13g2_nor2_1 abstract view
.subckt sg13g2_nor2_1 A B Y VDD VSS
.ends

* Black-box entry subcircuit for sg13g2_fill_1 abstract view
.subckt sg13g2_fill_1 VDD VSS
.ends

* Black-box entry subcircuit for sg13g2_buf_8 abstract view
.subckt sg13g2_buf_8 A X VDD VSS
.ends

* Black-box entry subcircuit for sg13g2_fill_2 abstract view
.subckt sg13g2_fill_2 VDD VSS
.ends

* Black-box entry subcircuit for sg13g2_tiehi abstract view
.subckt sg13g2_tiehi VDD VSS L_HI
.ends

* Black-box entry subcircuit for sg13g2_dfrbpq_1 abstract view
.subckt sg13g2_dfrbpq_1 RESET_B VSS VDD D Q CLK
.ends

* Black-box entry subcircuit for sg13g2_o21ai_1 abstract view
.subckt sg13g2_o21ai_1 B1 VDD Y VSS A1 A2
.ends

* Black-box entry subcircuit for sg13g2_nand2_2 abstract view
.subckt sg13g2_nand2_2 Y A B VDD VSS
.ends

* Black-box entry subcircuit for sg13g2_nor2_2 abstract view
.subckt sg13g2_nor2_2 A B Y VDD VSS
.ends

* Black-box entry subcircuit for sg13g2_inv_2 abstract view
.subckt sg13g2_inv_2 Y A VDD VSS
.ends

* Black-box entry subcircuit for sg13g2_a21oi_1 abstract view
.subckt sg13g2_a21oi_1 VSS VDD A1 A2 Y B1
.ends

* Black-box entry subcircuit for sg13g2_nand2b_1 abstract view
.subckt sg13g2_nand2b_1 Y B A_N VDD VSS
.ends

* Black-box entry subcircuit for sg13g2_a21o_2 abstract view
.subckt sg13g2_a21o_2 A2 A1 B1 X VDD VSS
.ends

* Black-box entry subcircuit for sg13g2_nand2_1 abstract view
.subckt sg13g2_nand2_1 Y A B VDD VSS
.ends

* Black-box entry subcircuit for sg13g2_buf_1 abstract view
.subckt sg13g2_buf_1 A X VDD VSS
.ends

* Black-box entry subcircuit for sg13g2_nor2b_1 abstract view
.subckt sg13g2_nor2b_1 A B_N Y VDD VSS
.ends

* Black-box entry subcircuit for sg13g2_dfrbpq_2 abstract view
.subckt sg13g2_dfrbpq_2 RESET_B VSS VDD D Q CLK
.ends

* Black-box entry subcircuit for sg13g2_nand3_1 abstract view
.subckt sg13g2_nand3_1 B C A Y VDD VSS
.ends

* Black-box entry subcircuit for sg13g2_nand4_1 abstract view
.subckt sg13g2_nand4_1 B C A Y VDD VSS D
.ends

* Black-box entry subcircuit for sg13g2_or4_1 abstract view
.subckt sg13g2_or4_1 A B C D X VDD VSS
.ends

* Black-box entry subcircuit for sg13g2_xnor2_1 abstract view
.subckt sg13g2_xnor2_1 Y A B VDD VSS
.ends

* Black-box entry subcircuit for sg13g2_a21o_1 abstract view
.subckt sg13g2_a21o_1 A2 A1 B1 X VDD VSS
.ends

* Black-box entry subcircuit for sg13g2_xor2_1 abstract view
.subckt sg13g2_xor2_1 B A X VDD VSS
.ends

* Black-box entry subcircuit for sg13g2_or3_1 abstract view
.subckt sg13g2_or3_1 A B C X VDD VSS
.ends

* Black-box entry subcircuit for sg13g2_tielo abstract view
.subckt sg13g2_tielo VDD VSS L_LO
.ends

* Black-box entry subcircuit for sg13g2_dlygate4sd3_1 abstract view
.subckt sg13g2_dlygate4sd3_1 A VDD VSS X
.ends

* Black-box entry subcircuit for sg13g2_nor3_1 abstract view
.subckt sg13g2_nor3_1 A B C Y VDD VSS
.ends

* Black-box entry subcircuit for sg13g2_a22oi_1 abstract view
.subckt sg13g2_a22oi_1 Y B1 B2 A2 A1 VDD VSS
.ends

* Black-box entry subcircuit for sg13g2_or2_1 abstract view
.subckt sg13g2_or2_1 VSS VDD X B A
.ends

* Black-box entry subcircuit for sg13g2_and2_1 abstract view
.subckt sg13g2_and2_1 A B X VDD VSS
.ends

* Black-box entry subcircuit for sg13g2_nand3b_1 abstract view
.subckt sg13g2_nand3b_1 B C Y VDD VSS A_N
.ends

* Black-box entry subcircuit for sg13g2_nor4_1 abstract view
.subckt sg13g2_nor4_1 A B C D Y VDD VSS
.ends

* Black-box entry subcircuit for sg13g2_buf_2 abstract view
.subckt sg13g2_buf_2 A X VDD VSS
.ends

* Black-box entry subcircuit for sg13g2_a221oi_1 abstract view
.subckt sg13g2_a221oi_1 VDD VSS B2 C1 B1 A1 Y A2
.ends

* Black-box entry subcircuit for sg13g2_nand2b_2 abstract view
.subckt sg13g2_nand2b_2 Y B VDD VSS A_N
.ends

* Black-box entry subcircuit for sg13g2_a21oi_2 abstract view
.subckt sg13g2_a21oi_2 VSS VDD B1 Y A2 A1
.ends

* Black-box entry subcircuit for sg13g2_and3_1 abstract view
.subckt sg13g2_and3_1 X A B C VDD VSS
.ends

* Black-box entry subcircuit for sg13g2_nor2b_2 abstract view
.subckt sg13g2_nor2b_2 A B_N Y VDD VSS
.ends

* Black-box entry subcircuit for sg13g2_nor4_2 abstract view
.subckt sg13g2_nor4_2 A B C Y VSS VDD D
.ends

* Black-box entry subcircuit for sg13g2_and3_2 abstract view
.subckt sg13g2_and3_2 X A B C VDD VSS
.ends

* Black-box entry subcircuit for sg13g2_and4_1 abstract view
.subckt sg13g2_and4_1 A B C D X VDD VSS
.ends

* Black-box entry subcircuit for sg13g2_inv_4 abstract view
.subckt sg13g2_inv_4 A Y VDD VSS
.ends

* Black-box entry subcircuit for sg13g2_nor3_2 abstract view
.subckt sg13g2_nor3_2 A B C Y VDD VSS
.ends

.subckt heichips25_bagel VGND VPWR clk ena rst_n tmds_b tmds_clk tmds_g tmds_r ui_in[0]
+ ui_in[1] ui_in[2] ui_in[3] ui_in[4] ui_in[5] ui_in[6] ui_in[7] uio_in[0] uio_in[1]
+ uio_in[2] uio_in[3] uio_in[4] uio_in[5] uio_in[6] uio_in[7] uio_oe[0] uio_oe[1]
+ uio_oe[2] uio_oe[3] uio_oe[4] uio_oe[5] uio_oe[6] uio_oe[7] uio_out[0] uio_out[1]
+ uio_out[2] uio_out[3] uio_out[4] uio_out[5] uio_out[6] uio_out[7] uo_out[0] uo_out[1]
+ uo_out[2] uo_out[3] uo_out[4] uo_out[5] uo_out[6] uo_out[7]
XFILLER_39_277 VPWR VGND sg13g2_decap_8
X_3155_ VPWR _0884_ _0883_ VGND sg13g2_inv_1
XFILLER_28_929 VPWR VGND sg13g2_decap_8
X_3086_ net427 blue_tmds_par\[5\] net694 serialize.n429\[5\] VPWR VGND sg13g2_mux2_1
XFILLER_36_962 VPWR VGND sg13g2_decap_8
XFILLER_23_623 VPWR VGND sg13g2_decap_4
XFILLER_22_133 VPWR VGND sg13g2_decap_8
XFILLER_35_494 VPWR VGND sg13g2_decap_4
X_3988_ videogen.test_lut_thingy.pixel_feeder_inst.row\[57\]\[0\] net564 _1656_ VPWR
+ VGND sg13g2_nor2_1
XFILLER_10_317 VPWR VGND sg13g2_decap_4
X_2939_ net764 _0786_ _0787_ VPWR VGND sg13g2_nor2_1
X_4609_ net655 net702 _0039_ VPWR VGND sg13g2_nor2_1
XFILLER_7_7 VPWR VGND sg13g2_fill_1
XFILLER_27_984 VPWR VGND sg13g2_decap_8
XFILLER_14_645 VPWR VGND sg13g2_fill_1
XFILLER_42_987 VPWR VGND sg13g2_decap_8
XFILLER_41_475 VPWR VGND sg13g2_fill_1
XFILLER_41_464 VPWR VGND sg13g2_fill_1
Xclkbuf_3_6__f_clk_regs clknet_0_clk_regs clknet_3_6__leaf_clk_regs VPWR VGND sg13g2_buf_8
XFILLER_42_40 VPWR VGND sg13g2_fill_1
XFILLER_41_486 VPWR VGND sg13g2_decap_4
XFILLER_13_177 VPWR VGND sg13g2_decap_4
XFILLER_10_895 VPWR VGND sg13g2_decap_8
XFILLER_5_365 VPWR VGND sg13g2_decap_8
XFILLER_1_571 VPWR VGND sg13g2_fill_2
X_5048__126 VPWR VGND net126 sg13g2_tiehi
XFILLER_49_520 VPWR VGND sg13g2_decap_8
XFILLER_3_1018 VPWR VGND sg13g2_decap_8
XFILLER_49_597 VPWR VGND sg13g2_decap_8
XFILLER_37_726 VPWR VGND sg13g2_decap_4
XFILLER_36_203 VPWR VGND sg13g2_fill_1
XFILLER_18_940 VPWR VGND sg13g2_decap_8
XFILLER_36_247 VPWR VGND sg13g2_fill_1
XFILLER_33_910 VPWR VGND sg13g2_decap_8
X_4960_ net324 VGND VPWR _0388_ red_tmds_par\[9\] net641 sg13g2_dfrbpq_1
X_4891_ net68 VGND VPWR _0319_ videogen.test_lut_thingy.pixel_feeder_inst.v_pix\[1\]
+ net631 sg13g2_dfrbpq_1
X_3911_ videogen.test_lut_thingy.pixel_feeder_inst.row\[29\]\[3\] net568 _1580_ VPWR
+ VGND sg13g2_nor2_1
X_3842_ videogen.test_lut_thingy.pixel_feeder_inst.row\[53\]\[3\] net565 _1511_ VPWR
+ VGND sg13g2_nor2_1
XFILLER_32_453 VPWR VGND sg13g2_fill_1
XFILLER_33_987 VPWR VGND sg13g2_decap_8
XFILLER_32_486 VPWR VGND sg13g2_decap_8
XFILLER_32_497 VPWR VGND sg13g2_fill_2
XFILLER_34_1020 VPWR VGND sg13g2_decap_8
X_3773_ _1441_ VPWR _1442_ VGND videogen.test_lut_thingy.pixel_feeder_inst.row\[2\]\[1\]
+ net553 sg13g2_o21ai_1
X_2724_ _0733_ net546 _0718_ VPWR VGND sg13g2_nand2_2
X_2655_ _0700_ _0707_ _0708_ VPWR VGND sg13g2_nor2_2
X_2586_ _0642_ videogen.fancy_shader.n646\[7\] VPWR VGND sg13g2_inv_2
X_4325_ VGND VPWR net606 _1981_ _0384_ net747 sg13g2_a21oi_1
X_4256_ _1918_ _1917_ _1905_ VPWR VGND sg13g2_nand2b_1
X_3207_ _0814_ _0927_ _0303_ VPWR VGND sg13g2_nor2_1
X_4187_ _1848_ _1845_ _1840_ _1849_ VPWR VGND sg13g2_a21o_2
X_3138_ _0867_ tmds_red.n114 tmds_red.n132 VPWR VGND sg13g2_nand2_1
X_3069_ serialize.n461 serialize.n459 clknet_1_0__leaf_clk net4 VPWR VGND sg13g2_mux2_1
XFILLER_35_291 VPWR VGND sg13g2_fill_2
XFILLER_24_976 VPWR VGND sg13g2_decap_8
XFILLER_7_619 VPWR VGND sg13g2_fill_1
XFILLER_3_836 VPWR VGND sg13g2_decap_8
XFILLER_2_302 VPWR VGND sg13g2_decap_8
Xfanout650 net651 net650 VPWR VGND sg13g2_buf_8
Xfanout694 net695 net694 VPWR VGND sg13g2_buf_8
XFILLER_19_704 VPWR VGND sg13g2_decap_8
XFILLER_19_715 VPWR VGND sg13g2_fill_1
Xfanout672 net693 net672 VPWR VGND sg13g2_buf_8
Xfanout661 net662 net661 VPWR VGND sg13g2_buf_1
Xfanout683 net687 net683 VPWR VGND sg13g2_buf_8
XFILLER_46_512 VPWR VGND sg13g2_decap_8
XFILLER_18_225 VPWR VGND sg13g2_decap_4
XFILLER_46_556 VPWR VGND sg13g2_decap_8
XFILLER_19_759 VPWR VGND sg13g2_fill_2
XFILLER_15_954 VPWR VGND sg13g2_decap_8
XFILLER_42_751 VPWR VGND sg13g2_decap_8
XFILLER_41_250 VPWR VGND sg13g2_decap_8
XFILLER_30_924 VPWR VGND sg13g2_decap_8
XFILLER_5_173 VPWR VGND sg13g2_fill_2
X_5090_ net353 VGND VPWR _0514_ videogen.test_lut_thingy.pixel_feeder_inst.row\[37\]\[0\]
+ _0162_ sg13g2_dfrbpq_1
XFILLER_2_880 VPWR VGND sg13g2_decap_8
X_4110_ _1759_ _1774_ _1775_ VPWR VGND sg13g2_nor2b_1
XFILLER_25_1019 VPWR VGND sg13g2_decap_8
X_4041_ _1706_ _0995_ _1192_ VPWR VGND sg13g2_nand2_2
XFILLER_49_383 VPWR VGND sg13g2_decap_8
XFILLER_25_707 VPWR VGND sg13g2_decap_8
XFILLER_18_792 VPWR VGND sg13g2_decap_8
X_4943_ net341 VGND VPWR _0371_ display_enable net636 sg13g2_dfrbpq_1
X_4874_ net94 VGND VPWR _0302_ videogen.fancy_shader.video_x\[3\] net632 sg13g2_dfrbpq_2
XFILLER_21_957 VPWR VGND sg13g2_decap_8
X_3825_ _1447_ _1493_ net2 _1494_ VPWR VGND sg13g2_nand3_1
X_3756_ _1425_ net583 videogen.test_lut_thingy.pixel_feeder_inst.row\[11\]\[1\] VPWR
+ VGND sg13g2_nand2b_1
X_2707_ _0647_ videogen.test_lut_thingy.pixel_feeder_inst.state\[2\] net619 _0728_
+ VPWR VGND _0704_ sg13g2_nand4_1
X_3687_ videogen.test_lut_thingy.pixel_feeder_inst.row\[49\]\[2\] net568 _1356_ VPWR
+ VGND sg13g2_nor2_1
X_2638_ _0691_ _0685_ _0690_ VPWR VGND sg13g2_nand2_2
XFILLER_0_817 VPWR VGND sg13g2_decap_8
X_4308_ _0662_ _1967_ _1968_ _1969_ _1970_ VPWR VGND sg13g2_or4_1
XFILLER_47_309 VPWR VGND sg13g2_fill_1
X_4239_ _1901_ _1073_ _1870_ VPWR VGND sg13g2_xnor2_1
XFILLER_16_718 VPWR VGND sg13g2_fill_1
XFILLER_43_548 VPWR VGND sg13g2_decap_8
XFILLER_24_751 VPWR VGND sg13g2_fill_1
XFILLER_12_968 VPWR VGND sg13g2_decap_8
XFILLER_23_31 VPWR VGND sg13g2_fill_1
XFILLER_11_467 VPWR VGND sg13g2_decap_4
XFILLER_20_990 VPWR VGND sg13g2_decap_8
XFILLER_48_1019 VPWR VGND sg13g2_decap_8
XFILLER_3_644 VPWR VGND sg13g2_fill_2
XFILLER_47_843 VPWR VGND sg13g2_decap_8
XFILLER_0_35 VPWR VGND sg13g2_fill_2
XFILLER_0_79 VPWR VGND sg13g2_decap_4
XFILLER_34_548 VPWR VGND sg13g2_fill_1
XFILLER_21_209 VPWR VGND sg13g2_decap_4
XFILLER_30_765 VPWR VGND sg13g2_fill_1
X_4590_ net686 net738 _0020_ VPWR VGND sg13g2_nor2_1
X_3610_ _1276_ _1268_ _1278_ _1279_ VPWR VGND sg13g2_a21o_1
XFILLER_31_1012 VPWR VGND sg13g2_decap_8
X_3541_ _1187_ _1178_ _1210_ VPWR VGND sg13g2_xor2_1
XFILLER_7_983 VPWR VGND sg13g2_decap_8
X_3472_ _1116_ _1117_ _1120_ _1141_ VPWR VGND sg13g2_or3_1
X_5211_ net803 VGND VPWR serialize.n428\[3\] serialize.n414\[1\] clknet_3_7__leaf_clk_regs
+ sg13g2_dfrbpq_1
XFILLER_43_2 VPWR VGND sg13g2_fill_1
X_5142_ net61 VGND VPWR _0566_ videogen.test_lut_thingy.pixel_feeder_inst.row\[24\]\[0\]
+ _0214_ sg13g2_dfrbpq_1
X_5073_ net31 VGND VPWR _0497_ videogen.test_lut_thingy.pixel_feeder_inst.row\[11\]\[0\]
+ _0154_ sg13g2_dfrbpq_1
X_4024_ VGND VPWR _1667_ _1691_ _1692_ _0661_ sg13g2_a21oi_1
XFILLER_25_504 VPWR VGND sg13g2_decap_8
XFILLER_25_559 VPWR VGND sg13g2_decap_8
XFILLER_40_518 VPWR VGND sg13g2_decap_8
X_4926_ net370 VGND VPWR _0354_ videogen.fancy_shader.n646\[8\] net632 sg13g2_dfrbpq_1
X_4857_ net125 VGND VPWR _0285_ videogen.test_lut_thingy.pixel_feeder_inst.row\[6\]\[2\]
+ _0016_ sg13g2_dfrbpq_1
XFILLER_21_776 VPWR VGND sg13g2_fill_1
X_3808_ videogen.test_lut_thingy.pixel_feeder_inst.row\[47\]\[1\] net578 _1477_ VPWR
+ VGND sg13g2_nor2_1
X_4788_ net690 net742 _0218_ VPWR VGND sg13g2_nor2_1
XFILLER_5_909 VPWR VGND sg13g2_decap_8
XFILLER_20_286 VPWR VGND sg13g2_fill_1
XFILLER_20_297 VPWR VGND sg13g2_decap_8
X_3739_ _1407_ VPWR _1408_ VGND videogen.test_lut_thingy.pixel_feeder_inst.row\[19\]\[1\]
+ net581 sg13g2_o21ai_1
Xheichips25_bagel_24 VPWR VGND uio_oe[5] sg13g2_tielo
XFILLER_28_320 VPWR VGND sg13g2_decap_4
XFILLER_29_865 VPWR VGND sg13g2_fill_1
XFILLER_18_64 VPWR VGND sg13g2_fill_1
XFILLER_29_887 VPWR VGND sg13g2_fill_2
XFILLER_43_367 VPWR VGND sg13g2_fill_1
XFILLER_43_389 VPWR VGND sg13g2_fill_1
XFILLER_8_725 VPWR VGND sg13g2_fill_2
XFILLER_8_714 VPWR VGND sg13g2_decap_8
XFILLER_4_953 VPWR VGND sg13g2_decap_8
XFILLER_3_463 VPWR VGND sg13g2_fill_1
XFILLER_3_496 VPWR VGND sg13g2_fill_1
XFILLER_39_618 VPWR VGND sg13g2_fill_2
XFILLER_46_194 VPWR VGND sg13g2_decap_8
XFILLER_46_172 VPWR VGND sg13g2_fill_2
XFILLER_34_345 VPWR VGND sg13g2_decap_4
X_2972_ net764 videogen.test_lut_thingy.pixel_feeder_inst.row\[0\]\[2\] _0795_ _0311_
+ VPWR VGND sg13g2_mux2_1
XFILLER_34_378 VPWR VGND sg13g2_fill_2
X_4711_ net681 net730 _0141_ VPWR VGND sg13g2_nor2_1
X_4642_ net665 net717 _0072_ VPWR VGND sg13g2_nor2_1
XFILLER_30_573 VPWR VGND sg13g2_decap_8
X_4573_ _2183_ _2200_ _2201_ VPWR VGND sg13g2_nor2_1
X_3524_ _1193_ _1192_ _1016_ VPWR VGND sg13g2_nand2b_1
X_3455_ VGND VPWR videogen.fancy_shader.n646\[7\] net629 _1124_ _1123_ sg13g2_a21oi_1
X_3386_ VGND VPWR videogen.test_lut_thingy.gol_counter_reg\[3\] _1055_ _0369_ _1056_
+ sg13g2_a21oi_1
X_5125_ net189 VGND VPWR _0549_ videogen.test_lut_thingy.pixel_feeder_inst.row\[2\]\[3\]
+ _0197_ sg13g2_dfrbpq_1
XFILLER_38_640 VPWR VGND sg13g2_decap_8
X_5056_ net84 VGND VPWR _0484_ videogen.test_lut_thingy.pixel_feeder_inst.row\[40\]\[3\]
+ _0141_ sg13g2_dfrbpq_1
XFILLER_29_139 VPWR VGND sg13g2_fill_1
X_5059__72 VPWR VGND net72 sg13g2_tiehi
X_4007_ videogen.test_lut_thingy.pixel_feeder_inst.row\[46\]\[0\] net557 _1675_ VPWR
+ VGND sg13g2_nor2_1
XFILLER_37_161 VPWR VGND sg13g2_decap_4
XFILLER_26_846 VPWR VGND sg13g2_decap_8
XFILLER_38_1007 VPWR VGND sg13g2_decap_8
XFILLER_25_378 VPWR VGND sg13g2_fill_1
X_4909_ net32 VGND VPWR _0337_ videogen.test_lut_thingy.pixel_feeder_inst.h_counter\[3\]
+ net635 sg13g2_dfrbpq_1
XFILLER_5_739 VPWR VGND sg13g2_decap_8
XFILLER_1_956 VPWR VGND sg13g2_decap_8
XFILLER_49_938 VPWR VGND sg13g2_decap_8
Xhold30 serialize.n417\[6\] VPWR VGND net435 sg13g2_dlygate4sd3_1
Xhold41 serialize.n410 VPWR VGND net446 sg13g2_dlygate4sd3_1
XFILLER_45_73 VPWR VGND sg13g2_fill_2
XFILLER_43_120 VPWR VGND sg13g2_fill_2
XFILLER_16_389 VPWR VGND sg13g2_fill_1
XFILLER_31_337 VPWR VGND sg13g2_fill_1
XFILLER_4_761 VPWR VGND sg13g2_decap_8
XFILLER_4_794 VPWR VGND sg13g2_decap_8
X_3240_ _0943_ _0949_ _0950_ _0321_ VPWR VGND sg13g2_nor3_1
XFILLER_6_1005 VPWR VGND sg13g2_decap_8
XFILLER_20_4 VPWR VGND sg13g2_decap_8
X_3171_ _0900_ _0895_ _0897_ _0892_ _0884_ VPWR VGND sg13g2_a22oi_1
XFILLER_19_183 VPWR VGND sg13g2_fill_2
X_5027__190 VPWR VGND net190 sg13g2_tiehi
XFILLER_35_610 VPWR VGND sg13g2_fill_2
XFILLER_35_621 VPWR VGND sg13g2_fill_1
XFILLER_22_315 VPWR VGND sg13g2_fill_2
XFILLER_23_827 VPWR VGND sg13g2_decap_8
X_2955_ _0719_ _0737_ _0792_ VPWR VGND sg13g2_nor2_2
X_2886_ _0775_ _0711_ _0771_ VPWR VGND sg13g2_nand2_2
X_4625_ net663 net713 _0055_ VPWR VGND sg13g2_nor2_1
X_4556_ VPWR _2185_ _2184_ VGND sg13g2_inv_1
X_3507_ VGND VPWR _1172_ _1174_ _1176_ _1175_ sg13g2_a21oi_1
X_4487_ _2120_ _0654_ _2119_ VPWR VGND sg13g2_xnor2_1
X_3438_ _1103_ _1101_ _1105_ _1107_ VPWR VGND sg13g2_a21o_1
X_3369_ _1047_ videogen.fancy_shader.video_y\[6\] _1046_ VPWR VGND sg13g2_xnor2_1
X_5108_ net256 VGND VPWR _0532_ videogen.test_lut_thingy.pixel_feeder_inst.row\[33\]\[2\]
+ _0180_ sg13g2_dfrbpq_1
XFILLER_45_407 VPWR VGND sg13g2_fill_1
X_5039_ net166 VGND VPWR _0467_ videogen.test_lut_thingy.pixel_feeder_inst.row\[43\]\[2\]
+ _0124_ sg13g2_dfrbpq_1
XFILLER_26_610 VPWR VGND sg13g2_decap_8
XFILLER_41_624 VPWR VGND sg13g2_decap_4
XFILLER_25_164 VPWR VGND sg13g2_decap_8
XFILLER_40_156 VPWR VGND sg13g2_fill_2
XFILLER_40_145 VPWR VGND sg13g2_decap_8
Xclkbuf_3_5__f_clk_regs clknet_0_clk_regs clknet_3_5__leaf_clk_regs VPWR VGND sg13g2_buf_8
X_5191__187 VPWR VGND net187 sg13g2_tiehi
XFILLER_21_392 VPWR VGND sg13g2_fill_2
XFILLER_31_31 VPWR VGND sg13g2_decap_8
Xoutput7 net7 uio_out[0] VPWR VGND sg13g2_buf_1
XFILLER_1_731 VPWR VGND sg13g2_decap_8
XFILLER_1_753 VPWR VGND sg13g2_decap_8
XFILLER_49_713 VPWR VGND sg13g2_fill_1
X_5163__223 VPWR VGND net223 sg13g2_tiehi
XFILLER_45_963 VPWR VGND sg13g2_decap_8
XFILLER_31_112 VPWR VGND sg13g2_fill_2
XFILLER_32_646 VPWR VGND sg13g2_decap_8
XFILLER_31_145 VPWR VGND sg13g2_decap_8
XFILLER_31_167 VPWR VGND sg13g2_fill_1
X_2740_ VGND VPWR _0737_ _0710_ net585 sg13g2_or2_1
XFILLER_12_381 VPWR VGND sg13g2_fill_1
XFILLER_9_875 VPWR VGND sg13g2_decap_8
X_2671_ _0716_ _0685_ _0715_ VPWR VGND sg13g2_nand2_2
X_4410_ _0906_ VPWR _2054_ VGND _2047_ _2053_ sg13g2_o21ai_1
X_4341_ net606 VPWR _1992_ VGND tmds_green.n126 _0860_ sg13g2_o21ai_1
XFILLER_28_1006 VPWR VGND sg13g2_decap_8
X_4272_ _1899_ _1912_ _1873_ _1934_ VPWR VGND _1913_ sg13g2_nand4_1
X_3223_ VGND VPWR _0675_ _0937_ _0317_ net745 sg13g2_a21oi_1
XFILLER_11_0 VPWR VGND sg13g2_fill_2
X_3154_ _0882_ net547 _0883_ VPWR VGND sg13g2_xor2_1
X_3085_ net443 blue_tmds_par\[2\] net700 serialize.n429\[4\] VPWR VGND sg13g2_mux2_1
X_4890__70 VPWR VGND net70 sg13g2_tiehi
XFILLER_35_462 VPWR VGND sg13g2_decap_4
XFILLER_35_473 VPWR VGND sg13g2_decap_8
X_3987_ net617 _1649_ _1654_ _1655_ VPWR VGND sg13g2_nor3_1
X_5198__82 VPWR VGND net82 sg13g2_tiehi
X_2938_ net754 videogen.test_lut_thingy.pixel_feeder_inst.row\[60\]\[3\] _0786_ _0400_
+ VPWR VGND sg13g2_mux2_1
X_2869_ VGND VPWR _0633_ _0768_ _0452_ _0769_ sg13g2_a21oi_1
X_4608_ net655 net707 _0038_ VPWR VGND sg13g2_nor2_1
X_4539_ VPWR _2168_ _2167_ VGND sg13g2_inv_1
XFILLER_27_963 VPWR VGND sg13g2_decap_8
XFILLER_26_473 VPWR VGND sg13g2_decap_4
XFILLER_42_966 VPWR VGND sg13g2_decap_8
XFILLER_26_495 VPWR VGND sg13g2_fill_2
XFILLER_9_105 VPWR VGND sg13g2_decap_4
XFILLER_6_834 VPWR VGND sg13g2_fill_1
XFILLER_5_344 VPWR VGND sg13g2_decap_8
XFILLER_5_399 VPWR VGND sg13g2_decap_8
XFILLER_1_550 VPWR VGND sg13g2_decap_8
XFILLER_49_576 VPWR VGND sg13g2_decap_8
XFILLER_36_226 VPWR VGND sg13g2_fill_1
XFILLER_17_440 VPWR VGND sg13g2_decap_8
XFILLER_17_451 VPWR VGND sg13g2_decap_8
XFILLER_17_462 VPWR VGND sg13g2_fill_1
XFILLER_18_996 VPWR VGND sg13g2_decap_8
XFILLER_44_270 VPWR VGND sg13g2_decap_4
X_4890_ net70 VGND VPWR _0318_ videogen.test_lut_thingy.pixel_feeder_inst.v_pix\[0\]
+ net631 sg13g2_dfrbpq_1
X_3910_ videogen.test_lut_thingy.pixel_feeder_inst.row\[30\]\[3\] net558 _1579_ VPWR
+ VGND sg13g2_nor2_1
XFILLER_32_410 VPWR VGND sg13g2_fill_1
X_3841_ videogen.test_lut_thingy.pixel_feeder_inst.row\[54\]\[3\] net554 _1510_ VPWR
+ VGND sg13g2_nor2_1
XFILLER_20_605 VPWR VGND sg13g2_decap_4
XFILLER_33_966 VPWR VGND sg13g2_decap_8
XFILLER_20_627 VPWR VGND sg13g2_decap_8
X_3772_ _1441_ net593 videogen.test_lut_thingy.pixel_feeder_inst.row\[0\]\[1\] VPWR
+ VGND sg13g2_nand2b_1
X_2723_ net546 _0718_ _0732_ VPWR VGND sg13g2_and2_1
X_2654_ _0705_ _0706_ net619 _0707_ VPWR VGND sg13g2_nand3_1
X_2585_ VPWR _0641_ videogen.fancy_shader.n646\[9\] VGND sg13g2_inv_1
X_4324_ _1981_ tmds_red.n102 _0914_ VPWR VGND sg13g2_xnor2_1
X_4255_ _1894_ VPWR _1917_ VGND _1877_ _1898_ sg13g2_o21ai_1
XFILLER_41_1014 VPWR VGND sg13g2_decap_8
X_3206_ _0927_ net797 _0926_ VPWR VGND sg13g2_nand2_1
X_4186_ _1836_ _1837_ _1848_ VPWR VGND _1827_ sg13g2_nand3b_1
X_3137_ tmds_red.dc_balancing_reg\[1\] tmds_red.dc_balancing_reg\[0\] tmds_red.dc_balancing_reg\[3\]
+ tmds_red.dc_balancing_reg\[2\] _0866_ VPWR VGND sg13g2_nor4_1
XFILLER_27_259 VPWR VGND sg13g2_fill_1
XFILLER_43_719 VPWR VGND sg13g2_fill_2
X_3068_ _0836_ _0849_ net7 VPWR VGND sg13g2_nor2_1
XFILLER_42_229 VPWR VGND sg13g2_fill_1
XFILLER_36_793 VPWR VGND sg13g2_decap_8
XFILLER_24_955 VPWR VGND sg13g2_decap_8
XFILLER_23_454 VPWR VGND sg13g2_decap_8
XFILLER_23_476 VPWR VGND sg13g2_decap_8
XFILLER_23_487 VPWR VGND sg13g2_decap_4
XFILLER_10_148 VPWR VGND sg13g2_fill_2
XFILLER_10_159 VPWR VGND sg13g2_fill_1
XFILLER_3_815 VPWR VGND sg13g2_decap_8
XFILLER_2_336 VPWR VGND sg13g2_decap_8
XFILLER_2_347 VPWR VGND sg13g2_fill_1
Xfanout651 net654 net651 VPWR VGND sg13g2_buf_2
Xfanout640 net648 net640 VPWR VGND sg13g2_buf_8
Xfanout684 net685 net684 VPWR VGND sg13g2_buf_8
Xfanout673 net674 net673 VPWR VGND sg13g2_buf_8
Xfanout662 net672 net662 VPWR VGND sg13g2_buf_8
Xfanout695 net700 net695 VPWR VGND sg13g2_buf_8
XFILLER_42_730 VPWR VGND sg13g2_decap_8
XFILLER_15_933 VPWR VGND sg13g2_decap_8
XFILLER_41_273 VPWR VGND sg13g2_fill_2
XFILLER_41_295 VPWR VGND sg13g2_decap_8
X_5177__41 VPWR VGND net41 sg13g2_tiehi
XFILLER_6_642 VPWR VGND sg13g2_fill_2
XFILLER_6_697 VPWR VGND sg13g2_decap_4
XFILLER_5_141 VPWR VGND sg13g2_fill_1
X_4040_ VPWR _1705_ _1704_ VGND sg13g2_inv_1
XFILLER_37_513 VPWR VGND sg13g2_fill_1
X_4942_ net342 VGND VPWR _0370_ hsync net639 sg13g2_dfrbpq_2
XFILLER_24_229 VPWR VGND sg13g2_decap_8
XFILLER_17_292 VPWR VGND sg13g2_fill_2
XFILLER_32_240 VPWR VGND sg13g2_decap_8
X_4873_ net95 VGND VPWR _0301_ videogen.fancy_shader.video_x\[2\] net647 sg13g2_dfrbpq_2
XFILLER_20_424 VPWR VGND sg13g2_fill_1
XFILLER_21_936 VPWR VGND sg13g2_decap_8
XFILLER_32_251 VPWR VGND sg13g2_fill_1
XFILLER_20_435 VPWR VGND sg13g2_decap_4
X_3824_ _1492_ VPWR _1493_ VGND _1458_ _1468_ sg13g2_o21ai_1
X_3755_ videogen.test_lut_thingy.pixel_feeder_inst.row\[8\]\[1\] net584 _1424_ VPWR
+ VGND sg13g2_nor2_1
X_2706_ videogen.test_lut_thingy.pixel_feeder_inst.row\[20\]\[0\] net792 _0727_ _0582_
+ VPWR VGND sg13g2_mux2_1
X_3686_ net597 VPWR _1355_ VGND videogen.test_lut_thingy.pixel_feeder_inst.row\[51\]\[2\]
+ net580 sg13g2_o21ai_1
XFILLER_9_491 VPWR VGND sg13g2_decap_4
X_2637_ _0690_ net615 _0688_ VPWR VGND sg13g2_xnor2_1
X_4307_ _1953_ _1948_ _1950_ _1969_ VPWR VGND sg13g2_mux2_1
X_4238_ _1900_ _1877_ _1898_ VPWR VGND sg13g2_xnor2_1
X_4169_ _1820_ _1821_ _1826_ _1831_ VPWR VGND sg13g2_nor3_1
XFILLER_24_730 VPWR VGND sg13g2_decap_8
XFILLER_12_947 VPWR VGND sg13g2_decap_8
XFILLER_23_273 VPWR VGND sg13g2_fill_2
XFILLER_11_435 VPWR VGND sg13g2_decap_8
X_4920__382 VPWR VGND net382 sg13g2_tiehi
XFILLER_23_284 VPWR VGND sg13g2_fill_1
XFILLER_7_439 VPWR VGND sg13g2_decap_4
X_5090__353 VPWR VGND net353 sg13g2_tiehi
XFILLER_47_833 VPWR VGND sg13g2_fill_1
XFILLER_48_84 VPWR VGND sg13g2_decap_8
XFILLER_19_524 VPWR VGND sg13g2_fill_1
XFILLER_0_14 VPWR VGND sg13g2_decap_8
XFILLER_47_899 VPWR VGND sg13g2_decap_8
XFILLER_34_527 VPWR VGND sg13g2_decap_8
XFILLER_15_752 VPWR VGND sg13g2_fill_2
XFILLER_9_45 VPWR VGND sg13g2_fill_2
XFILLER_15_785 VPWR VGND sg13g2_decap_4
XFILLER_30_755 VPWR VGND sg13g2_fill_1
XFILLER_7_962 VPWR VGND sg13g2_decap_8
XFILLER_11_980 VPWR VGND sg13g2_decap_8
X_3540_ VPWR VGND _1206_ _1189_ _1201_ _1193_ _1209_ _1194_ sg13g2_a221oi_1
X_5210_ net802 VGND VPWR serialize.n428\[2\] serialize.n414\[0\] clknet_3_7__leaf_clk_regs
+ sg13g2_dfrbpq_1
X_3471_ _1120_ VPWR _1140_ VGND _1116_ _1117_ sg13g2_o21ai_1
X_5141_ net69 VGND VPWR _0565_ videogen.test_lut_thingy.pixel_feeder_inst.row\[25\]\[3\]
+ _0213_ sg13g2_dfrbpq_1
XFILLER_36_2 VPWR VGND sg13g2_fill_1
X_5072_ net35 VGND VPWR _0496_ videogen.test_lut_thingy.pixel_feeder_inst.row\[15\]\[3\]
+ _0153_ sg13g2_dfrbpq_1
X_4023_ _1690_ videogen.test_lut_thingy.pixel_feeder_inst.h_pix\[5\] _1691_ VPWR VGND
+ sg13g2_nor2b_1
XFILLER_49_192 VPWR VGND sg13g2_decap_8
XFILLER_38_855 VPWR VGND sg13g2_fill_1
XFILLER_38_888 VPWR VGND sg13g2_fill_2
XFILLER_25_516 VPWR VGND sg13g2_fill_1
XFILLER_37_398 VPWR VGND sg13g2_fill_1
XFILLER_25_527 VPWR VGND sg13g2_decap_8
X_4925_ net372 VGND VPWR _0353_ videogen.fancy_shader.n646\[7\] net634 sg13g2_dfrbpq_2
XFILLER_33_571 VPWR VGND sg13g2_fill_2
X_4856_ net127 VGND VPWR _0284_ videogen.test_lut_thingy.pixel_feeder_inst.row\[6\]\[1\]
+ _0015_ sg13g2_dfrbpq_1
XFILLER_20_221 VPWR VGND sg13g2_decap_8
XFILLER_21_744 VPWR VGND sg13g2_decap_4
X_3807_ videogen.test_lut_thingy.pixel_feeder_inst.row\[46\]\[1\] net556 _1476_ VPWR
+ VGND sg13g2_nor2_1
X_5037__170 VPWR VGND net170 sg13g2_tiehi
X_4787_ net657 net709 _0217_ VPWR VGND sg13g2_nor2_1
X_3738_ _1407_ net594 videogen.test_lut_thingy.pixel_feeder_inst.row\[16\]\[1\] VPWR
+ VGND sg13g2_nand2b_1
XFILLER_4_409 VPWR VGND sg13g2_decap_8
Xheichips25_bagel_25 VPWR VGND uio_oe[6] sg13g2_tielo
X_3669_ videogen.test_lut_thingy.pixel_feeder_inst.row\[9\]\[2\] net561 _1338_ VPWR
+ VGND sg13g2_nor2_1
X_4903__44 VPWR VGND net44 sg13g2_tiehi
XFILLER_0_648 VPWR VGND sg13g2_decap_8
XFILLER_29_844 VPWR VGND sg13g2_decap_8
XFILLER_16_516 VPWR VGND sg13g2_fill_2
XFILLER_28_354 VPWR VGND sg13g2_fill_1
XFILLER_44_858 VPWR VGND sg13g2_decap_4
XFILLER_43_335 VPWR VGND sg13g2_decap_8
XFILLER_43_324 VPWR VGND sg13g2_decap_4
XFILLER_43_313 VPWR VGND sg13g2_decap_4
X_5194__163 VPWR VGND net163 sg13g2_tiehi
XFILLER_34_53 VPWR VGND sg13g2_decap_4
XFILLER_12_755 VPWR VGND sg13g2_decap_8
XFILLER_34_86 VPWR VGND sg13g2_fill_1
XFILLER_34_97 VPWR VGND sg13g2_decap_8
XFILLER_11_243 VPWR VGND sg13g2_decap_4
XFILLER_7_247 VPWR VGND sg13g2_decap_8
XFILLER_4_932 VPWR VGND sg13g2_decap_8
XFILLER_3_475 VPWR VGND sg13g2_decap_8
XFILLER_22_8 VPWR VGND sg13g2_decap_4
X_5068__51 VPWR VGND net51 sg13g2_tiehi
XFILLER_34_324 VPWR VGND sg13g2_decap_8
XFILLER_22_519 VPWR VGND sg13g2_decap_4
X_2971_ net754 videogen.test_lut_thingy.pixel_feeder_inst.row\[0\]\[3\] _0795_ _0312_
+ VPWR VGND sg13g2_mux2_1
X_4710_ net679 net731 _0140_ VPWR VGND sg13g2_nor2_1
X_4641_ net664 net716 _0071_ VPWR VGND sg13g2_nor2_1
X_4572_ VGND VPWR _2198_ _2199_ _2200_ _2057_ sg13g2_a21oi_1
XFILLER_7_770 VPWR VGND sg13g2_fill_1
XFILLER_7_781 VPWR VGND sg13g2_fill_1
X_3523_ _1192_ _1190_ _1191_ VPWR VGND sg13g2_xnor2_1
X_3454_ VGND VPWR _0642_ _0651_ _1123_ _1119_ sg13g2_a21oi_1
XFILLER_41_0 VPWR VGND sg13g2_decap_8
X_3385_ net795 VPWR _1056_ VGND videogen.test_lut_thingy.gol_counter_reg\[3\] _1055_
+ sg13g2_o21ai_1
X_5124_ net193 VGND VPWR _0548_ videogen.test_lut_thingy.pixel_feeder_inst.row\[2\]\[2\]
+ _0196_ sg13g2_dfrbpq_1
X_5055_ net98 VGND VPWR _0483_ videogen.test_lut_thingy.pixel_feeder_inst.row\[40\]\[2\]
+ _0140_ sg13g2_dfrbpq_1
X_4006_ videogen.test_lut_thingy.pixel_feeder_inst.row\[44\]\[0\] net588 _1674_ VPWR
+ VGND sg13g2_nor2_1
XFILLER_26_825 VPWR VGND sg13g2_decap_8
XFILLER_25_335 VPWR VGND sg13g2_decap_8
XFILLER_25_346 VPWR VGND sg13g2_fill_1
XFILLER_13_519 VPWR VGND sg13g2_decap_8
Xclkbuf_3_4__f_clk_regs clknet_0_clk_regs clknet_3_4__leaf_clk_regs VPWR VGND sg13g2_buf_8
X_4908_ net34 VGND VPWR _0336_ videogen.test_lut_thingy.pixel_feeder_inst.h_counter\[2\]
+ net635 sg13g2_dfrbpq_2
XFILLER_21_563 VPWR VGND sg13g2_decap_4
X_4839_ net153 VGND VPWR _0267_ videogen.test_lut_thingy.pixel_feeder_inst.row\[39\]\[0\]
+ _0006_ sg13g2_dfrbpq_1
XFILLER_21_585 VPWR VGND sg13g2_decap_8
XFILLER_20_11 VPWR VGND sg13g2_decap_8
XFILLER_1_935 VPWR VGND sg13g2_decap_8
XFILLER_49_917 VPWR VGND sg13g2_decap_8
Xhold20 serialize.n417\[7\] VPWR VGND net425 sg13g2_dlygate4sd3_1
XFILLER_48_416 VPWR VGND sg13g2_fill_2
Xhold31 serialize.n414\[2\] VPWR VGND net436 sg13g2_dlygate4sd3_1
XFILLER_0_467 VPWR VGND sg13g2_decap_8
XFILLER_17_836 VPWR VGND sg13g2_decap_4
XFILLER_43_154 VPWR VGND sg13g2_decap_8
XFILLER_16_368 VPWR VGND sg13g2_fill_1
XFILLER_40_894 VPWR VGND sg13g2_decap_8
XFILLER_40_883 VPWR VGND sg13g2_decap_4
XFILLER_8_534 VPWR VGND sg13g2_decap_8
XFILLER_12_596 VPWR VGND sg13g2_fill_2
XFILLER_6_24 VPWR VGND sg13g2_decap_8
XFILLER_6_13 VPWR VGND sg13g2_fill_2
X_3170_ _0899_ _0898_ _0888_ VPWR VGND sg13g2_nand2b_1
XFILLER_13_4 VPWR VGND sg13g2_decap_4
XFILLER_23_806 VPWR VGND sg13g2_fill_2
X_2954_ net787 videogen.test_lut_thingy.pixel_feeder_inst.row\[62\]\[0\] _0791_ _0389_
+ VPWR VGND sg13g2_mux2_1
X_2885_ videogen.test_lut_thingy.pixel_feeder_inst.row\[4\]\[0\] net784 _0774_ _0441_
+ VPWR VGND sg13g2_mux2_1
XFILLER_30_371 VPWR VGND sg13g2_decap_8
XFILLER_30_382 VPWR VGND sg13g2_fill_1
X_5151__320 VPWR VGND net320 sg13g2_tiehi
X_4624_ net663 net715 _0054_ VPWR VGND sg13g2_nor2_1
X_4555_ _2148_ _2181_ _2184_ VPWR VGND sg13g2_nor2_1
X_3506_ _1149_ _1168_ _1175_ VPWR VGND sg13g2_and2_1
X_4486_ VGND VPWR tmds_green.dc_balancing_reg\[3\] _2086_ _2119_ _2084_ sg13g2_a21oi_1
X_3437_ VGND VPWR _1101_ _1103_ _1106_ _1105_ sg13g2_a21oi_1
X_4885__79 VPWR VGND net79 sg13g2_tiehi
X_3368_ net745 _1045_ _1046_ _0361_ VPWR VGND sg13g2_nor3_1
X_5107_ net260 VGND VPWR _0531_ videogen.test_lut_thingy.pixel_feeder_inst.row\[33\]\[1\]
+ _0179_ sg13g2_dfrbpq_1
XFILLER_46_909 VPWR VGND sg13g2_decap_8
X_3299_ _0985_ VPWR _0991_ VGND _0986_ _0988_ sg13g2_o21ai_1
XFILLER_39_983 VPWR VGND sg13g2_decap_8
X_5038_ net168 VGND VPWR _0466_ videogen.test_lut_thingy.pixel_feeder_inst.row\[43\]\[1\]
+ _0123_ sg13g2_dfrbpq_1
XFILLER_5_504 VPWR VGND sg13g2_fill_2
Xoutput8 net8 uio_out[2] VPWR VGND sg13g2_buf_1
Xoutput10 net10 uio_out[4] VPWR VGND sg13g2_buf_1
XFILLER_0_220 VPWR VGND sg13g2_decap_8
XFILLER_0_253 VPWR VGND sg13g2_decap_8
XFILLER_48_202 VPWR VGND sg13g2_decap_8
XFILLER_36_408 VPWR VGND sg13g2_decap_4
XFILLER_36_419 VPWR VGND sg13g2_fill_1
XFILLER_45_942 VPWR VGND sg13g2_decap_8
XFILLER_16_132 VPWR VGND sg13g2_decap_8
XFILLER_17_633 VPWR VGND sg13g2_fill_2
XFILLER_44_474 VPWR VGND sg13g2_fill_1
XFILLER_16_187 VPWR VGND sg13g2_decap_4
XFILLER_31_124 VPWR VGND sg13g2_decap_8
XFILLER_32_625 VPWR VGND sg13g2_fill_2
XFILLER_9_832 VPWR VGND sg13g2_decap_8
XFILLER_13_883 VPWR VGND sg13g2_fill_2
XFILLER_8_364 VPWR VGND sg13g2_fill_1
XFILLER_8_342 VPWR VGND sg13g2_decap_8
X_2670_ _0715_ videogen.test_lut_thingy.pixel_feeder_inst.state\[2\] _0688_ VPWR VGND
+ sg13g2_nand2_1