*SPEF "ieee 1481-1999"
*DESIGN "heichips25_bagel"
*DATE "23:24:49 Saturday August 23, 2025"
*VENDOR "The OpenROAD Project"
*PROGRAM "OpenROAD"
*VERSION "341650e72dad0dc8571822ff8c5d9c5e365327f7"
*DESIGN_FLOW "NAME_SCOPE LOCAL" "PIN_CAP NONE"
*DIVIDER /
*DELIMITER :
*BUS_DELIMITER []
*T_UNIT 1 NS
*C_UNIT 1 PF
*R_UNIT 1 OHM
*L_UNIT 1 HENRY

*NAME_MAP
*3 clk
*4 ena
*5 rst_n
*6 tmds_b
*7 tmds_clk
*8 tmds_g
*9 tmds_r
*10 ui_in[0]
*11 ui_in[1]
*12 ui_in[2]
*13 ui_in[3]
*14 ui_in[4]
*15 ui_in[5]
*16 ui_in[6]
*17 ui_in[7]
*18 uio_in[0]
*19 uio_in[1]
*20 uio_in[2]
*21 uio_in[3]
*22 uio_in[4]
*23 uio_in[5]
*24 uio_in[6]
*25 uio_in[7]
*26 net21
*27 net22
*28 net23
*29 net24
*30 net25
*31 net26
*32 net27
*33 net28
*34 uio_out[0]
*35 net29
*36 uio_out[2]
*37 uio_out[3]
*38 uio_out[4]
*39 net30
*40 uio_out[6]
*41 uio_out[7]
*42 uo_out[0]
*43 uo_out[1]
*44 uo_out[2]
*45 uo_out[3]
*46 uo_out[4]
*47 uo_out[5]
*48 uo_out[6]
*49 uo_out[7]
*50 _0000_
*51 _0001_
*52 _0002_
*53 _0003_
*54 _0004_
*55 _0006_
*56 _0007_
*57 _0008_
*58 _0009_
*59 _0010_
*60 _0011_
*61 _0012_
*62 _0013_
*63 _0014_
*64 _0015_
*65 _0016_
*66 _0017_
*67 _0018_
*68 _0019_
*69 _0020_
*70 _0021_
*71 _0022_
*72 _0023_
*73 _0024_
*74 _0025_
*75 _0026_
*76 _0027_
*77 _0028_
*78 _0029_
*79 _0030_
*80 _0031_
*81 _0032_
*82 _0033_
*83 _0034_
*84 _0035_
*85 _0036_
*86 _0037_
*87 _0038_
*88 _0039_
*89 _0040_
*90 _0041_
*91 _0042_
*92 _0043_
*93 _0044_
*94 _0045_
*95 _0046_
*96 _0047_
*97 _0048_
*98 _0049_
*99 _0050_
*100 _0051_
*101 _0052_
*102 _0053_
*103 _0054_
*104 _0055_
*105 _0056_
*106 _0057_
*107 _0058_
*108 _0059_
*109 _0060_
*110 _0061_
*111 _0062_
*112 _0063_
*113 _0064_
*114 _0065_
*115 _0066_
*116 _0067_
*117 _0068_
*118 _0069_
*119 _0070_
*120 _0071_
*121 _0072_
*122 _0073_
*123 _0074_
*124 _0075_
*125 _0076_
*126 _0077_
*127 _0078_
*128 _0079_
*129 _0080_
*130 _0081_
*131 _0082_
*132 _0083_
*133 _0084_
*134 _0085_
*135 _0086_
*136 _0087_
*137 _0088_
*138 _0089_
*139 _0090_
*140 _0091_
*141 _0092_
*142 _0093_
*143 _0094_
*144 _0095_
*145 _0096_
*146 _0097_
*147 _0098_
*148 _0099_
*149 _0100_
*150 _0101_
*151 _0102_
*152 _0103_
*153 _0104_
*154 _0105_
*155 _0106_
*156 _0107_
*157 _0108_
*158 _0109_
*159 _0110_
*160 _0111_
*161 _0112_
*162 _0113_
*163 _0114_
*164 _0115_
*165 _0116_
*166 _0117_
*167 _0118_
*168 _0119_
*169 _0120_
*170 _0121_
*171 _0122_
*172 _0123_
*173 _0124_
*174 _0125_
*175 _0126_
*176 _0127_
*177 _0128_
*178 _0129_
*179 _0130_
*180 _0131_
*181 _0132_
*182 _0133_
*183 _0134_
*184 _0135_
*185 _0136_
*186 _0137_
*187 _0138_
*188 _0139_
*189 _0140_
*190 _0141_
*191 _0142_
*192 _0143_
*193 _0144_
*194 _0145_
*195 _0146_
*196 _0147_
*197 _0148_
*198 _0149_
*199 _0150_
*200 _0151_
*201 _0152_
*202 _0153_
*203 _0154_
*204 _0155_
*205 _0156_
*206 _0157_
*207 _0158_
*208 _0159_
*209 _0160_
*210 _0161_
*211 _0162_
*212 _0163_
*213 _0164_
*214 _0165_
*215 _0166_
*216 _0167_
*217 _0168_
*218 _0169_
*219 _0170_
*220 _0171_
*221 _0172_
*222 _0173_
*223 _0174_
*224 _0175_
*225 _0176_
*226 _0177_
*227 _0178_
*228 _0179_
*229 _0180_
*230 _0181_
*231 _0182_
*232 _0183_
*233 _0184_
*234 _0185_
*235 _0186_
*236 _0187_
*237 _0188_
*238 _0189_
*239 _0190_
*240 _0191_
*241 _0192_
*242 _0193_
*243 _0194_
*244 _0195_
*245 _0196_
*246 _0197_
*247 _0198_
*248 _0199_
*249 _0200_
*250 _0201_
*251 _0202_
*252 _0203_
*253 _0204_
*254 _0205_
*255 _0206_
*256 _0207_
*257 _0208_
*258 _0209_
*259 _0210_
*260 _0211_
*261 _0212_
*262 _0213_
*263 _0214_
*264 _0215_
*265 _0216_
*266 _0217_
*267 _0218_
*268 _0219_
*269 _0220_
*270 _0221_
*271 _0222_
*272 _0223_
*273 _0224_
*274 _0225_
*275 _0226_
*276 _0227_
*277 _0228_
*278 _0229_
*279 _0230_
*280 _0231_
*281 _0232_
*282 _0233_
*283 _0234_
*284 _0235_
*285 _0236_
*286 _0237_
*287 _0238_
*288 _0239_
*289 _0240_
*290 _0241_
*291 _0242_
*292 _0243_
*293 _0244_
*294 _0245_
*295 _0246_
*296 _0247_
*297 _0248_
*298 _0249_
*299 _0250_
*300 _0251_
*301 _0252_
*302 _0253_
*303 _0254_
*304 _0255_
*305 _0256_
*306 _0257_
*307 _0258_
*308 _0259_
*309 _0260_
*310 _0261_
*311 _0262_
*312 _0263_
*313 _0264_
*314 _0265_
*315 _0266_
*316 _0267_
*317 _0268_
*318 _0269_
*319 _0270_
*320 _0271_
*321 _0272_
*322 _0273_
*323 _0274_
*324 _0275_
*325 _0276_
*326 _0277_
*327 _0278_
*328 _0279_
*329 _0280_
*330 _0281_
*331 _0282_
*332 _0283_
*333 _0284_
*334 _0285_
*335 _0286_
*336 _0287_
*337 _0288_
*338 _0289_
*339 _0290_
*340 _0291_
*341 _0292_
*342 _0293_
*343 _0294_
*344 _0295_
*345 _0296_
*346 _0297_
*347 _0298_
*348 _0299_
*349 _0300_
*350 _0301_
*351 _0302_
*352 _0303_
*353 _0304_
*354 _0305_
*355 _0306_
*356 _0307_
*357 _0308_
*358 _0309_
*359 _0310_
*360 _0311_
*361 _0312_
*362 _0313_
*363 _0314_
*364 _0315_
*365 _0316_
*366 _0317_
*367 _0318_
*368 _0319_
*369 _0320_
*370 _0321_
*371 _0322_
*372 _0323_
*373 _0324_
*374 _0325_
*375 _0326_
*376 _0327_
*377 _0328_
*378 _0329_
*379 _0330_
*380 _0331_
*381 _0332_
*382 _0333_
*383 _0334_
*384 _0335_
*385 _0336_
*386 _0337_
*387 _0338_
*388 _0339_
*389 _0340_
*390 _0341_
*391 _0342_
*392 _0343_
*393 _0344_
*394 _0345_
*395 _0346_
*396 _0347_
*397 _0348_
*398 _0349_
*399 _0350_
*400 _0351_
*401 _0352_
*402 _0353_
*403 _0354_
*404 _0355_
*405 _0356_
*406 _0357_
*407 _0358_
*408 _0359_
*409 _0360_
*410 _0361_
*411 _0362_
*412 _0363_
*413 _0364_
*414 _0365_
*415 _0366_
*416 _0367_
*417 _0368_
*418 _0369_
*419 _0370_
*420 _0371_
*421 _0372_
*422 _0373_
*423 _0374_
*424 _0375_
*425 _0376_
*426 _0377_
*427 _0378_
*428 _0379_
*429 _0380_
*430 _0381_
*431 _0382_
*432 _0383_
*433 _0384_
*434 _0385_
*435 _0386_
*436 _0387_
*437 _0388_
*438 _0389_
*439 _0390_
*440 _0391_
*441 _0392_
*442 _0393_
*443 _0394_
*444 _0395_
*445 _0396_
*446 _0397_
*447 _0398_
*448 _0399_
*449 _0400_
*450 _0401_
*451 _0402_
*452 _0403_
*453 _0404_
*454 _0405_
*455 _0406_
*456 _0407_
*457 _0408_
*458 _0409_
*459 _0410_
*460 _0411_
*461 _0412_
*462 _0413_
*463 _0414_
*464 _0415_
*465 _0416_
*466 _0417_
*467 _0418_
*468 _0419_
*469 _0420_
*470 _0421_
*471 _0422_
*472 _0423_
*473 _0424_
*474 _0425_
*475 _0426_
*476 _0427_
*477 _0428_
*478 _0429_
*479 _0430_
*480 _0431_
*481 _0432_
*482 _0433_
*483 _0434_
*484 _0435_
*485 _0436_
*486 _0437_
*487 _0438_
*488 _0439_
*489 _0440_
*490 _0441_
*491 _0442_
*492 _0443_
*493 _0444_
*494 _0445_
*495 _0446_
*496 _0447_
*497 _0448_
*498 _0449_
*499 _0450_
*500 _0451_
*501 _0452_
*502 _0453_
*503 _0454_
*504 _0455_
*505 _0456_
*506 _0457_
*507 _0458_
*508 _0459_
*509 _0460_
*510 _0461_
*511 _0462_
*512 _0463_
*513 _0464_
*514 _0465_
*515 _0466_
*516 _0467_
*517 _0468_
*518 _0469_
*519 _0470_
*520 _0471_
*521 _0472_
*522 _0473_
*523 _0474_
*524 _0475_
*525 _0476_
*526 _0477_
*527 _0478_
*528 _0479_
*529 _0480_
*530 _0481_
*531 _0482_
*532 _0483_
*533 _0484_
*534 _0485_
*535 _0486_
*536 _0487_
*537 _0488_
*538 _0489_
*539 _0490_
*540 _0491_
*541 _0492_
*542 _0493_
*543 _0494_
*544 _0495_
*545 _0496_
*546 _0497_
*547 _0498_
*548 _0499_
*549 _0500_
*550 _0501_
*551 _0502_
*552 _0503_
*553 _0504_
*554 _0505_
*555 _0506_
*556 _0507_
*557 _0508_
*558 _0509_
*559 _0510_
*560 _0511_
*561 _0512_
*562 _0513_
*563 _0514_
*564 _0515_
*565 _0516_
*566 _0517_
*567 _0518_
*568 _0519_
*569 _0520_
*570 _0521_
*571 _0522_
*572 _0523_
*573 _0524_
*574 _0525_
*575 _0526_
*576 _0527_
*577 _0528_
*578 _0529_
*579 _0530_
*580 _0531_
*581 _0532_
*582 _0533_
*583 _0534_
*584 _0535_
*585 _0536_
*586 _0537_
*587 _0538_
*588 _0539_
*589 _0540_
*590 _0541_
*591 _0542_
*592 _0543_
*593 _0544_
*594 _0545_
*595 _0546_
*596 _0547_
*597 _0548_
*598 _0549_
*599 _0550_
*600 _0551_
*601 _0552_
*602 _0553_
*603 _0554_
*604 _0555_
*605 _0556_
*606 _0557_
*607 _0558_
*608 _0559_
*609 _0560_
*610 _0561_
*611 _0562_
*612 _0563_
*613 _0564_
*614 _0565_
*615 _0566_
*616 _0567_
*617 _0568_
*618 _0569_
*619 _0570_
*620 _0571_
*621 _0572_
*622 _0573_
*623 _0574_
*624 _0575_
*625 _0576_
*626 _0577_
*627 _0578_
*628 _0579_
*629 _0580_
*630 _0581_
*631 _0582_
*632 _0583_
*633 _0584_
*634 _0585_
*635 _0586_
*636 _0587_
*637 _0588_
*638 _0589_
*639 _0590_
*640 _0591_
*641 _0592_
*642 _0593_
*643 _0594_
*644 _0595_
*645 _0596_
*646 _0597_
*647 _0598_
*648 _0599_
*649 _0600_
*650 _0601_
*651 _0602_
*652 _0603_
*653 _0604_
*654 _0605_
*655 _0606_
*656 _0607_
*657 _0608_
*658 _0609_
*659 _0610_
*660 _0611_
*661 _0612_
*662 _0613_
*663 _0614_
*664 _0615_
*665 _0616_
*666 _0617_
*667 _0618_
*668 _0619_
*669 _0620_
*670 _0621_
*671 _0622_
*672 _0623_
*673 _0624_
*674 _0625_
*675 _0626_
*676 _0627_
*677 _0628_
*678 _0629_
*679 _0630_
*680 _0631_
*681 _0632_
*682 _0633_
*683 _0634_
*684 _0635_
*685 _0636_
*686 _0637_
*687 _0638_
*688 _0639_
*689 _0640_
*690 _0641_
*691 _0642_
*692 _0643_
*693 _0644_
*694 _0645_
*695 _0646_
*696 _0647_
*697 _0648_
*698 _0649_
*699 _0650_
*700 _0651_
*701 _0652_
*702 _0653_
*703 _0654_
*704 _0655_
*705 _0656_
*706 _0657_
*707 _0658_
*708 _0659_
*709 _0660_
*710 _0661_
*711 _0662_
*712 _0663_
*713 _0664_
*714 _0665_
*715 _0666_
*716 _0667_
*717 _0668_
*718 _0669_
*719 _0670_
*720 _0671_
*721 _0672_
*722 _0673_
*723 _0674_
*724 _0675_
*725 _0676_
*726 _0677_
*727 _0678_
*728 _0679_
*729 _0680_
*730 _0681_
*731 _0682_
*732 _0683_
*733 _0684_
*734 _0685_
*735 _0686_
*736 _0687_
*737 _0688_
*738 _0689_
*739 _0690_
*740 _0691_
*741 _0692_
*742 _0693_
*743 _0694_
*744 _0695_
*745 _0696_
*746 _0697_
*747 _0698_
*748 _0699_
*749 _0700_
*750 _0701_
*751 _0702_
*752 _0703_
*753 _0704_
*754 _0705_
*755 _0706_
*756 _0707_
*757 _0708_
*758 _0709_
*759 _0710_
*760 _0711_
*761 _0712_
*762 _0713_
*763 _0714_
*764 _0715_
*765 _0716_
*766 _0717_
*767 _0718_
*768 _0719_
*769 _0720_
*770 _0721_
*771 _0722_
*772 _0723_
*773 _0724_
*774 _0725_
*775 _0726_
*776 _0727_
*777 _0728_
*778 _0729_
*779 _0730_
*780 _0731_
*781 _0732_
*782 _0733_
*783 _0734_
*784 _0735_
*785 _0736_
*786 _0737_
*787 _0738_
*788 _0739_
*789 _0740_
*790 _0741_
*791 _0742_
*792 _0743_
*793 _0744_
*794 _0745_
*795 _0746_
*796 _0747_
*797 _0748_
*798 _0749_
*799 _0750_
*800 _0751_
*801 _0752_
*802 _0753_
*803 _0754_
*804 _0755_
*805 _0756_
*806 _0757_
*807 _0758_
*808 _0759_
*809 _0760_
*810 _0761_
*811 _0762_
*812 _0763_
*813 _0764_
*814 _0765_
*815 _0766_
*816 _0767_
*817 _0768_
*818 _0769_
*819 _0770_
*820 _0771_
*821 _0772_
*822 _0773_
*823 _0774_
*824 _0775_
*825 _0776_
*826 _0777_
*827 _0778_
*828 _0779_
*829 _0780_
*830 _0781_
*831 _0782_
*832 _0783_
*833 _0784_
*834 _0785_
*835 _0786_
*836 _0787_
*837 _0788_
*838 _0789_
*839 _0790_
*840 _0791_
*841 _0792_
*842 _0793_
*843 _0794_
*844 _0795_
*845 _0796_
*846 _0797_
*847 _0798_
*848 _0799_
*849 _0800_
*850 _0801_
*851 _0802_
*852 _0803_
*853 _0804_
*854 _0805_
*855 _0806_
*856 _0807_
*857 _0808_
*858 _0809_
*859 _0810_
*860 _0811_
*861 _0812_
*862 _0813_
*863 _0814_
*864 _0815_
*865 _0816_
*866 _0817_
*867 _0818_
*868 _0819_
*869 _0820_
*870 _0821_
*871 _0822_
*872 _0823_
*873 _0824_
*874 _0825_
*875 _0826_
*876 _0827_
*877 _0828_
*878 _0829_
*879 _0830_
*880 _0831_
*881 _0832_
*882 _0833_
*883 _0834_
*884 _0835_
*885 _0836_
*886 _0837_
*887 _0838_
*888 _0839_
*889 _0840_
*890 _0841_
*891 _0842_
*892 _0843_
*893 _0844_
*894 _0845_
*895 _0846_
*896 _0847_
*897 _0848_
*898 _0849_
*899 _0850_
*900 _0851_
*901 _0852_
*902 _0853_
*903 _0854_
*904 _0855_
*905 _0856_
*906 _0857_
*907 _0858_
*908 _0859_
*909 _0860_
*910 _0861_
*911 _0862_
*912 _0863_
*913 _0864_
*914 _0865_
*915 _0866_
*916 _0867_
*917 _0868_
*918 _0869_
*919 _0870_
*920 _0871_
*921 _0872_
*922 _0873_
*923 _0874_
*924 _0875_
*925 _0876_
*926 _0877_
*927 _0878_
*928 _0879_
*929 _0880_
*930 _0881_
*931 _0882_
*932 _0883_
*933 _0884_
*934 _0885_
*935 _0886_
*936 _0887_
*937 _0888_
*938 _0889_
*939 _0890_
*940 _0891_
*941 _0892_
*942 _0893_
*943 _0894_
*944 _0895_
*945 _0896_
*946 _0897_
*947 _0898_
*948 _0899_
*949 _0900_
*950 _0901_
*951 _0902_
*952 _0903_
*953 _0904_
*954 _0905_
*955 _0906_
*956 _0907_
*957 _0908_
*958 _0909_
*959 _0910_
*960 _0911_
*961 _0912_
*962 _0913_
*963 _0914_
*964 _0915_
*965 _0916_
*966 _0917_
*967 _0918_
*968 _0919_
*969 _0920_
*970 _0921_
*971 _0922_
*972 _0923_
*973 _0924_
*974 _0925_
*975 _0926_
*976 _0927_
*977 _0928_
*978 _0929_
*979 _0930_
*980 _0931_
*981 _0932_
*982 _0933_
*983 _0934_
*984 _0935_
*985 _0936_
*986 _0937_
*987 _0938_
*988 _0939_
*989 _0940_
*990 _0941_
*991 _0942_
*992 _0943_
*993 _0944_
*994 _0945_
*995 _0946_
*996 _0947_
*997 _0948_
*998 _0949_
*999 _0950_
*1000 _0951_
*1001 _0952_
*1002 _0953_
*1003 _0954_
*1004 _0955_
*1005 _0956_
*1006 _0957_
*1007 _0958_
*1008 _0959_
*1009 _0960_
*1010 _0961_
*1011 _0962_
*1012 _0963_
*1013 _0964_
*1014 _0965_
*1015 _0966_
*1016 _0967_
*1017 _0968_
*1018 _0969_
*1019 _0970_
*1020 _0971_
*1021 _0972_
*1022 _0973_
*1023 _0974_
*1024 _0975_
*1025 _0976_
*1026 _0977_
*1027 _0978_
*1028 _0979_
*1029 _0980_
*1030 _0981_
*1031 _0982_
*1032 _0983_
*1033 _0984_
*1034 _0985_
*1035 _0986_
*1036 _0987_
*1037 _0988_
*1038 _0989_
*1039 _0990_
*1040 _0991_
*1041 _0992_
*1042 _0993_
*1043 _0994_
*1044 _0995_
*1045 _0996_
*1046 _0997_
*1047 _0998_
*1048 _0999_
*1049 _1000_
*1050 _1001_
*1051 _1002_
*1052 _1003_
*1053 _1004_
*1054 _1005_
*1055 _1006_
*1056 _1007_
*1057 _1008_
*1058 _1009_
*1059 _1010_
*1060 _1011_
*1061 _1012_
*1062 _1013_
*1063 _1014_
*1064 _1015_
*1065 _1016_
*1066 _1017_
*1067 _1018_
*1068 _1019_
*1069 _1020_
*1070 _1021_
*1071 _1022_
*1072 _1023_
*1073 _1024_
*1074 _1025_
*1075 _1026_
*1076 _1027_
*1077 _1028_
*1078 _1029_
*1079 _1030_
*1080 _1031_
*1081 _1032_
*1082 _1033_
*1083 _1034_
*1084 _1035_
*1085 _1036_
*1086 _1037_
*1087 _1038_
*1088 _1039_
*1089 _1040_
*1090 _1041_
*1091 _1042_
*1092 _1043_
*1093 _1044_
*1094 _1045_
*1095 _1046_
*1096 _1047_
*1097 _1048_
*1098 _1049_
*1099 _1050_
*1100 _1051_
*1101 _1052_
*1102 _1053_
*1103 _1054_
*1104 _1055_
*1105 _1056_
*1106 _1057_
*1107 _1058_
*1108 _1059_
*1109 _1060_
*1110 _1061_
*1111 _1062_
*1112 _1063_
*1113 _1064_
*1114 _1065_
*1115 _1066_
*1116 _1067_
*1117 _1068_
*1118 _1069_
*1119 _1070_
*1120 _1071_
*1121 _1072_
*1122 _1073_
*1123 _1074_
*1124 _1075_
*1125 _1076_
*1126 _1077_
*1127 _1078_
*1128 _1079_
*1129 _1080_
*1130 _1081_
*1131 _1082_
*1132 _1083_
*1133 _1084_
*1134 _1085_
*1135 _1086_
*1136 _1087_
*1137 _1088_
*1138 _1089_
*1139 _1090_
*1140 _1091_
*1141 _1092_
*1142 _1093_
*1143 _1094_
*1144 _1095_
*1145 _1096_
*1146 _1097_
*1147 _1098_
*1148 _1099_
*1149 _1100_
*1150 _1101_
*1151 _1102_
*1152 _1103_
*1153 _1104_
*1154 _1105_
*1155 _1106_
*1156 _1107_
*1157 _1108_
*1158 _1109_
*1159 _1110_
*1160 _1111_
*1161 _1112_
*1162 _1113_
*1163 _1114_
*1164 _1115_
*1165 _1116_
*1166 _1117_
*1167 _1118_
*1168 _1119_
*1169 _1120_
*1170 _1121_
*1171 _1122_
*1172 _1123_
*1173 _1124_
*1174 _1125_
*1175 _1126_
*1176 _1127_
*1177 _1128_
*1178 _1129_
*1179 _1130_
*1180 _1131_
*1181 _1132_
*1182 _1133_
*1183 _1134_
*1184 _1135_
*1185 _1136_
*1186 _1137_
*1187 _1138_
*1188 _1139_
*1189 _1140_
*1190 _1141_
*1191 _1142_
*1192 _1143_
*1193 _1144_
*1194 _1145_
*1195 _1146_
*1196 _1147_
*1197 _1148_
*1198 _1149_
*1199 _1150_
*1200 _1151_
*1201 _1152_
*1202 _1153_
*1203 _1154_
*1204 _1155_
*1205 _1156_
*1206 _1157_
*1207 _1158_
*1208 _1159_
*1209 _1160_
*1210 _1161_
*1211 _1162_
*1212 _1163_
*1213 _1164_
*1214 _1165_
*1215 _1166_
*1216 _1167_
*1217 _1168_
*1218 _1169_
*1219 _1170_
*1220 _1171_
*1221 _1172_
*1222 _1173_
*1223 _1174_
*1224 _1175_
*1225 _1176_
*1226 _1177_
*1227 _1178_
*1228 _1179_
*1229 _1180_
*1230 _1181_
*1231 _1182_
*1232 _1183_
*1233 _1184_
*1234 _1185_
*1235 _1186_
*1236 _1187_
*1237 _1188_
*1238 _1189_
*1239 _1190_
*1240 _1191_
*1241 _1192_
*1242 _1193_
*1243 _1194_
*1244 _1195_
*1245 _1196_
*1246 _1197_
*1247 _1198_
*1248 _1199_
*1249 _1200_
*1250 _1201_
*1251 _1202_
*1252 _1203_
*1253 _1204_
*1254 _1205_
*1255 _1206_
*1256 _1207_
*1257 _1208_
*1258 _1209_
*1259 _1210_
*1260 _1211_
*1261 _1212_
*1262 _1213_
*1263 _1214_
*1264 _1215_
*1265 _1216_
*1266 _1217_
*1267 _1218_
*1268 _1219_
*1269 _1220_
*1270 _1221_
*1271 _1222_
*1272 _1223_
*1273 _1224_
*1274 _1225_
*1275 _1226_
*1276 _1227_
*1277 _1228_
*1278 _1229_
*1279 _1230_
*1280 _1231_
*1281 _1232_
*1282 _1233_
*1283 _1234_
*1284 _1235_
*1285 _1236_
*1286 _1237_
*1287 _1238_
*1288 _1239_
*1289 _1240_
*1290 _1241_
*1291 _1242_
*1292 _1243_
*1293 _1244_
*1294 _1245_
*1295 _1246_
*1296 _1247_
*1297 _1248_
*1298 _1249_
*1299 _1250_
*1300 _1251_
*1301 _1252_
*1302 _1253_
*1303 _1254_
*1304 _1255_
*1305 _1256_
*1306 _1257_
*1307 _1258_
*1308 _1259_
*1309 _1260_
*1310 _1261_
*1311 _1262_
*1312 _1263_
*1313 _1264_
*1314 _1265_
*1315 _1266_
*1316 _1267_
*1317 _1268_
*1318 _1269_
*1319 _1270_
*1320 _1271_
*1321 _1272_
*1322 _1273_
*1323 _1274_
*1324 _1275_
*1325 _1276_
*1326 _1277_
*1327 _1278_
*1328 _1279_
*1329 _1280_
*1330 _1281_
*1331 _1282_
*1332 _1283_
*1333 _1284_
*1334 _1285_
*1335 _1286_
*1336 _1287_
*1337 _1288_
*1338 _1289_
*1339 _1290_
*1340 _1291_
*1341 _1292_
*1342 _1293_
*1343 _1294_
*1344 _1295_
*1345 _1296_
*1346 _1297_
*1347 _1298_
*1348 _1299_
*1349 _1300_
*1350 _1301_
*1351 _1302_
*1352 _1303_
*1353 _1304_
*1354 _1305_
*1355 _1306_
*1356 _1307_
*1357 _1308_
*1358 _1309_
*1359 _1310_
*1360 _1311_
*1361 _1312_
*1362 _1313_
*1363 _1314_
*1364 _1315_
*1365 _1316_
*1366 _1317_
*1367 _1318_
*1368 _1319_
*1369 _1320_
*1370 _1321_
*1371 _1322_
*1372 _1323_
*1373 _1324_
*1374 _1325_
*1375 _1326_
*1376 _1327_
*1377 _1328_
*1378 _1329_
*1379 _1330_
*1380 _1331_
*1381 _1332_
*1382 _1333_
*1383 _1334_
*1384 _1335_
*1385 _1336_
*1386 _1337_
*1387 _1338_
*1388 _1339_
*1389 _1340_
*1390 _1341_
*1391 _1342_
*1392 _1343_
*1393 _1344_
*1394 _1345_
*1395 _1346_
*1396 _1347_
*1397 _1348_
*1398 _1349_
*1399 _1350_
*1400 _1351_
*1401 _1352_
*1402 _1353_
*1403 _1354_
*1404 _1355_
*1405 _1356_
*1406 _1357_
*1407 _1358_
*1408 _1359_
*1409 _1360_
*1410 _1361_
*1411 _1362_
*1412 _1363_
*1413 _1364_
*1414 _1365_
*1415 _1366_
*1416 _1367_
*1417 _1368_
*1418 _1369_
*1419 _1370_
*1420 _1371_
*1421 _1372_
*1422 _1373_
*1423 _1374_
*1424 _1375_
*1425 _1376_
*1426 _1377_
*1427 _1378_
*1428 _1379_
*1429 _1380_
*1430 _1381_
*1431 _1382_
*1432 _1383_
*1433 _1384_
*1434 _1385_
*1435 _1386_
*1436 _1387_
*1437 _1388_
*1438 _1389_
*1439 _1390_
*1440 _1391_
*1441 _1392_
*1442 _1393_
*1443 _1394_
*1444 _1395_
*1445 _1396_
*1446 _1397_
*1447 _1398_
*1448 _1399_
*1449 _1400_
*1450 _1401_
*1451 _1402_
*1452 _1403_
*1453 _1404_
*1454 _1405_
*1455 _1406_
*1456 _1407_
*1457 _1408_
*1458 _1409_
*1459 _1410_
*1460 _1411_
*1461 _1412_
*1462 _1413_
*1463 _1414_
*1464 _1415_
*1465 _1416_
*1466 _1417_
*1467 _1418_
*1468 _1419_
*1469 _1420_
*1470 _1421_
*1471 _1422_
*1472 _1423_
*1473 _1424_
*1474 _1425_
*1475 _1426_
*1476 _1427_
*1477 _1428_
*1478 _1429_
*1479 _1430_
*1480 _1431_
*1481 _1432_
*1482 _1433_
*1483 _1434_
*1484 _1435_
*1485 _1436_
*1486 _1437_
*1487 _1438_
*1488 _1439_
*1489 _1440_
*1490 _1441_
*1491 _1442_
*1492 _1443_
*1493 _1444_
*1494 _1445_
*1495 _1446_
*1496 _1447_
*1497 _1448_
*1498 _1449_
*1499 _1450_
*1500 _1451_
*1501 _1452_
*1502 _1453_
*1503 _1454_
*1504 _1455_
*1505 _1456_
*1506 _1457_
*1507 _1458_
*1508 _1459_
*1509 _1460_
*1510 _1461_
*1511 _1462_
*1512 _1463_
*1513 _1464_
*1514 _1465_
*1515 _1466_
*1516 _1467_
*1517 _1468_
*1518 _1469_
*1519 _1470_
*1520 _1471_
*1521 _1472_
*1522 _1473_
*1523 _1474_
*1524 _1475_
*1525 _1476_
*1526 _1477_
*1527 _1478_
*1528 _1479_
*1529 _1480_
*1530 _1481_
*1531 _1482_
*1532 _1483_
*1533 _1484_
*1534 _1485_
*1535 _1486_
*1536 _1487_
*1537 _1488_
*1538 _1489_
*1539 _1490_
*1540 _1491_
*1541 _1492_
*1542 _1493_
*1543 _1494_
*1544 _1495_
*1545 _1496_
*1546 _1497_
*1547 _1498_
*1548 _1499_
*1549 _1500_
*1550 _1501_
*1551 _1502_
*1552 _1503_
*1553 _1504_
*1554 _1505_
*1555 _1506_
*1556 _1507_
*1557 _1508_
*1558 _1509_
*1559 _1510_
*1560 _1511_
*1561 _1512_
*1562 _1513_
*1563 _1514_
*1564 _1515_
*1565 _1516_
*1566 _1517_
*1567 _1518_
*1568 _1519_
*1569 _1520_
*1570 _1521_
*1571 _1522_
*1572 _1523_
*1573 _1524_
*1574 _1525_
*1575 _1526_
*1576 _1527_
*1577 _1528_
*1578 _1529_
*1579 _1530_
*1580 _1531_
*1581 _1532_
*1582 _1533_
*1583 _1534_
*1584 _1535_
*1585 _1536_
*1586 _1537_
*1587 _1538_
*1588 _1539_
*1589 _1540_
*1590 _1541_
*1591 _1542_
*1592 _1543_
*1593 _1544_
*1594 _1545_
*1595 _1546_
*1596 _1547_
*1597 _1548_
*1598 _1549_
*1599 _1550_
*1600 _1551_
*1601 _1552_
*1602 _1553_
*1603 _1554_
*1604 _1555_
*1605 _1556_
*1606 _1557_
*1607 _1558_
*1608 _1559_
*1609 _1560_
*1610 _1561_
*1611 _1562_
*1612 _1563_
*1613 _1564_
*1614 _1565_
*1615 _1566_
*1616 _1567_
*1617 _1568_
*1618 _1569_
*1619 _1570_
*1620 _1571_
*1621 _1572_
*1622 _1573_
*1623 _1574_
*1624 _1575_
*1625 _1576_
*1626 _1577_
*1627 _1578_
*1628 _1579_
*1629 _1580_
*1630 _1581_
*1631 _1582_
*1632 _1583_
*1633 _1584_
*1634 _1585_
*1635 _1586_
*1636 _1587_
*1637 _1588_
*1638 _1589_
*1639 _1590_
*1640 _1591_
*1641 _1592_
*1642 _1593_
*1643 _1594_
*1644 _1595_
*1645 _1596_
*1646 _1597_
*1647 _1598_
*1648 _1599_
*1649 _1600_
*1650 _1601_
*1651 _1602_
*1652 _1603_
*1653 _1604_
*1654 _1605_
*1655 _1606_
*1656 _1607_
*1657 _1608_
*1658 _1609_
*1659 _1610_
*1660 _1611_
*1661 _1612_
*1662 _1613_
*1663 _1614_
*1664 _1615_
*1665 _1616_
*1666 _1617_
*1667 _1618_
*1668 _1619_
*1669 _1620_
*1670 _1621_
*1671 _1622_
*1672 _1623_
*1673 _1624_
*1674 _1625_
*1675 _1626_
*1676 _1627_
*1677 _1628_
*1678 _1629_
*1679 _1630_
*1680 _1631_
*1681 _1632_
*1682 _1633_
*1683 _1634_
*1684 _1635_
*1685 _1636_
*1686 _1637_
*1687 _1638_
*1688 _1639_
*1689 _1640_
*1690 _1641_
*1691 _1642_
*1692 _1643_
*1693 _1644_
*1694 _1645_
*1695 _1646_
*1696 _1647_
*1697 _1648_
*1698 _1649_
*1699 _1650_
*1700 _1651_
*1701 _1652_
*1702 _1653_
*1703 _1654_
*1704 _1655_
*1705 _1656_
*1706 _1657_
*1707 _1658_
*1708 _1659_
*1709 _1660_
*1710 _1661_
*1711 _1662_
*1712 _1663_
*1713 _1664_
*1714 _1665_
*1715 _1666_
*1716 _1667_
*1717 _1668_
*1718 _1669_
*1719 _1670_
*1720 _1671_
*1721 _1672_
*1722 _1673_
*1723 _1674_
*1724 _1675_
*1725 _1676_
*1726 _1677_
*1727 _1678_
*1728 _1679_
*1729 _1680_
*1730 _1681_
*1731 _1682_
*1732 _1683_
*1733 _1684_
*1734 _1685_
*1735 _1686_
*1736 _1687_
*1737 _1688_
*1738 _1689_
*1739 _1690_
*1740 _1691_
*1741 _1692_
*1742 _1693_
*1743 _1694_
*1744 _1695_
*1745 _1696_
*1746 _1697_
*1747 _1698_
*1748 _1699_
*1749 _1700_
*1750 _1701_
*1751 _1702_
*1752 _1703_
*1753 _1704_
*1754 _1705_
*1755 _1706_
*1756 _1707_
*1757 _1708_
*1758 _1709_
*1759 _1710_
*1760 _1711_
*1761 _1712_
*1762 _1713_
*1763 _1714_
*1764 _1715_
*1765 _1716_
*1766 _1717_
*1767 _1718_
*1768 _1719_
*1769 _1720_
*1770 _1721_
*1771 _1722_
*1772 _1723_
*1773 _1724_
*1774 _1725_
*1775 _1726_
*1776 _1727_
*1777 _1728_
*1778 _1729_
*1779 _1730_
*1780 _1731_
*1781 _1732_
*1782 _1733_
*1783 _1734_
*1784 _1735_
*1785 _1736_
*1786 _1737_
*1787 _1738_
*1788 _1739_
*1789 _1740_
*1790 _1741_
*1791 _1742_
*1792 _1743_
*1793 _1744_
*1794 _1745_
*1795 _1746_
*1796 _1747_
*1797 _1748_
*1798 _1749_
*1799 _1750_
*1800 _1751_
*1801 _1752_
*1802 _1753_
*1803 _1754_
*1804 _1755_
*1805 _1756_
*1806 _1757_
*1807 _1758_
*1808 _1759_
*1809 _1760_
*1810 _1761_
*1811 _1762_
*1812 _1763_
*1813 _1764_
*1814 _1765_
*1815 _1766_
*1816 _1767_
*1817 _1768_
*1818 _1769_
*1819 _1770_
*1820 _1771_
*1821 _1772_
*1822 _1773_
*1823 _1774_
*1824 _1775_
*1825 _1776_
*1826 _1777_
*1827 _1778_
*1828 _1779_
*1829 _1780_
*1830 _1781_
*1831 _1782_
*1832 _1783_
*1833 _1784_
*1834 _1785_
*1835 _1786_
*1836 _1787_
*1837 _1788_
*1838 _1789_
*1839 _1790_
*1840 _1791_
*1841 _1792_
*1842 _1793_
*1843 _1794_
*1844 _1795_
*1845 _1796_
*1846 _1797_
*1847 _1798_
*1848 _1799_
*1849 _1800_
*1850 _1801_
*1851 _1802_
*1852 _1803_
*1853 _1804_
*1854 _1805_
*1855 _1806_
*1856 _1807_
*1857 _1808_
*1858 _1809_
*1859 _1810_
*1860 _1811_
*1861 _1812_
*1862 _1813_
*1863 _1814_
*1864 _1815_
*1865 _1816_
*1866 _1817_
*1867 _1818_
*1868 _1819_
*1869 _1820_
*1870 _1821_
*1871 _1822_
*1872 _1823_
*1873 _1824_
*1874 _1825_
*1875 _1826_
*1876 _1827_
*1877 _1828_
*1878 _1829_
*1879 _1830_
*1880 _1831_
*1881 _1832_
*1882 _1833_
*1883 _1834_
*1884 _1835_
*1885 _1836_
*1886 _1837_
*1887 _1838_
*1888 _1839_
*1889 _1840_
*1890 _1841_
*1891 _1842_
*1892 _1843_
*1893 _1844_
*1894 _1845_
*1895 _1846_
*1896 _1847_
*1897 _1848_
*1898 _1849_
*1899 _1850_
*1900 _1851_
*1901 _1852_
*1902 _1853_
*1903 _1854_
*1904 _1855_
*1905 _1856_
*1906 _1857_
*1907 _1858_
*1908 _1859_
*1909 _1860_
*1910 _1861_
*1911 _1862_
*1912 _1863_
*1913 _1864_
*1914 _1865_
*1915 _1866_
*1916 _1867_
*1917 _1868_
*1918 _1869_
*1919 _1870_
*1920 _1871_
*1921 _1872_
*1922 _1873_
*1923 _1874_
*1924 _1875_
*1925 _1876_
*1926 _1877_
*1927 _1878_
*1928 _1879_
*1929 _1880_
*1930 _1881_
*1931 _1882_
*1932 _1883_
*1933 _1884_
*1934 _1885_
*1935 _1886_
*1936 _1887_
*1937 _1888_
*1938 _1889_
*1939 _1890_
*1940 _1891_
*1941 _1892_
*1942 _1893_
*1943 _1894_
*1944 _1895_
*1945 _1896_
*1946 _1897_
*1947 _1898_
*1948 _1899_
*1949 _1900_
*1950 _1901_
*1951 _1902_
*1952 _1903_
*1953 _1904_
*1954 _1905_
*1955 _1906_
*1956 _1907_
*1957 _1908_
*1958 _1909_
*1959 _1910_
*1960 _1911_
*1961 _1912_
*1962 _1913_
*1963 _1914_
*1964 _1915_
*1965 _1916_
*1966 _1917_
*1967 _1918_
*1968 _1919_
*1969 _1920_
*1970 _1921_
*1971 _1922_
*1972 _1923_
*1973 _1924_
*1974 _1925_
*1975 _1926_
*1976 _1927_
*1977 _1928_
*1978 _1929_
*1979 _1930_
*1980 _1931_
*1981 _1932_
*1982 _1933_
*1983 _1934_
*1984 _1935_
*1985 _1936_
*1986 _1937_
*1987 _1938_
*1988 _1939_
*1989 _1940_
*1990 _1941_
*1991 _1942_
*1992 _1943_
*1993 _1944_
*1994 _1945_
*1995 _1946_
*1996 _1947_
*1997 _1948_
*1998 _1949_
*1999 _1950_
*2000 _1951_
*2001 _1952_
*2002 _1953_
*2003 _1954_
*2004 _1955_
*2005 _1956_
*2006 _1957_
*2007 _1958_
*2008 _1959_
*2009 _1960_
*2010 _1961_
*2011 _1962_
*2012 _1963_
*2013 _1964_
*2014 _1965_
*2015 _1966_
*2016 _1967_
*2017 _1968_
*2018 _1969_
*2019 _1970_
*2020 _1971_
*2021 _1972_
*2022 _1973_
*2023 _1974_
*2024 _1975_
*2025 _1976_
*2026 _1977_
*2027 _1978_
*2028 _1979_
*2029 _1980_
*2030 _1981_
*2031 _1982_
*2032 _1983_
*2033 _1984_
*2034 _1985_
*2035 _1986_
*2036 _1987_
*2037 _1988_
*2038 _1989_
*2039 _1990_
*2040 _1991_
*2041 _1992_
*2042 _1993_
*2043 _1994_
*2044 _1995_
*2045 _1996_
*2046 _1997_
*2047 _1998_
*2048 _1999_
*2049 _2000_
*2050 _2001_
*2051 _2002_
*2052 _2003_
*2053 _2004_
*2054 _2005_
*2055 _2006_
*2056 _2007_
*2057 _2008_
*2058 _2009_
*2059 _2010_
*2060 _2011_
*2061 _2012_
*2062 _2013_
*2063 _2014_
*2064 _2015_
*2065 _2016_
*2066 _2017_
*2067 _2018_
*2068 _2019_
*2069 _2020_
*2070 _2021_
*2071 _2022_
*2072 _2023_
*2073 _2024_
*2074 _2025_
*2075 _2026_
*2076 _2027_
*2077 _2028_
*2078 _2029_
*2079 _2030_
*2080 _2031_
*2081 _2032_
*2082 _2033_
*2083 _2034_
*2084 _2035_
*2085 _2036_
*2086 _2037_
*2087 _2038_
*2088 _2039_
*2089 _2040_
*2090 _2041_
*2091 _2042_
*2092 _2043_
*2093 _2044_
*2094 _2045_
*2095 _2046_
*2096 _2047_
*2097 _2048_
*2098 _2049_
*2099 _2050_
*2100 _2051_
*2101 _2052_
*2102 _2053_
*2103 _2054_
*2104 _2055_
*2105 _2056_
*2106 _2057_
*2107 _2058_
*2108 _2059_
*2109 _2060_
*2110 _2061_
*2111 _2062_
*2112 _2063_
*2113 _2064_
*2114 _2065_
*2115 _2066_
*2116 _2067_
*2117 _2068_
*2118 _2069_
*2119 _2070_
*2120 _2071_
*2121 _2072_
*2122 _2073_
*2123 _2074_
*2124 _2075_
*2125 _2076_
*2126 _2077_
*2127 _2078_
*2128 _2079_
*2129 _2080_
*2130 _2081_
*2131 _2082_
*2132 _2083_
*2133 _2084_
*2134 _2085_
*2135 _2086_
*2136 _2087_
*2137 _2088_
*2138 _2089_
*2139 _2090_
*2140 _2091_
*2141 _2092_
*2142 _2093_
*2143 _2094_
*2144 _2095_
*2145 _2096_
*2146 _2097_
*2147 _2098_
*2148 _2099_
*2149 _2100_
*2150 _2101_
*2151 _2102_
*2152 _2103_
*2153 _2104_
*2154 _2105_
*2155 _2106_
*2156 _2107_
*2157 _2108_
*2158 _2109_
*2159 _2110_
*2160 _2111_
*2161 _2112_
*2162 _2113_
*2163 _2114_
*2164 _2115_
*2165 _2116_
*2166 _2117_
*2167 _2118_
*2168 _2119_
*2169 _2120_
*2170 _2121_
*2171 _2122_
*2172 _2123_
*2173 _2124_
*2174 _2125_
*2175 _2126_
*2176 _2127_
*2177 _2128_
*2178 _2129_
*2179 _2130_
*2180 _2131_
*2181 _2132_
*2182 _2133_
*2183 _2134_
*2184 _2135_
*2185 _2136_
*2186 _2137_
*2187 _2138_
*2188 _2139_
*2189 blue_tmds_par\[0\]
*2190 blue_tmds_par\[1\]
*2191 blue_tmds_par\[2\]
*2192 blue_tmds_par\[3\]
*2193 blue_tmds_par\[5\]
*2194 blue_tmds_par\[6\]
*2195 blue_tmds_par\[7\]
*2196 blue_tmds_par\[8\]
*2197 blue_tmds_par\[9\]
*2198 clk_regs
*2199 clk_video
*2200 clknet_0_clk
*2201 clknet_0_clk_regs
*2202 clknet_1_0__leaf_clk
*2203 clknet_1_1__leaf_clk
*2204 clknet_3_0__leaf_clk_regs
*2205 clknet_3_1__leaf_clk_regs
*2206 clknet_3_2__leaf_clk_regs
*2207 clknet_3_3__leaf_clk_regs
*2208 clknet_3_4__leaf_clk_regs
*2209 clknet_3_5__leaf_clk_regs
*2210 clknet_3_6__leaf_clk_regs
*2211 clknet_3_7__leaf_clk_regs
*2212 clockdiv\.q0
*2213 clockdiv\.q1
*2214 clockdiv\.q2
*2215 clockdiv\.q2temp
*2216 display_enable
*2217 green_tmds_par\[0\]
*2218 green_tmds_par\[1\]
*2219 green_tmds_par\[2\]
*2220 green_tmds_par\[6\]
*2221 green_tmds_par\[7\]
*2222 green_tmds_par\[8\]
*2223 green_tmds_par\[9\]
*2224 hsync
*2225 net1
*2226 net10
*2227 net100
*2228 net101
*2229 net102
*2230 net103
*2231 net104
*2232 net105
*2233 net106
*2234 net107
*2235 net108
*2236 net109
*2237 net11
*2238 net110
*2239 net111
*2240 net112
*2241 net113
*2242 net114
*2243 net115
*2244 net116
*2245 net117
*2246 net118
*2247 net119
*2248 net12
*2249 net120
*2250 net121
*2251 net122
*2252 net123
*2253 net124
*2254 net125
*2255 net126
*2256 net127
*2257 net128
*2258 net129
*2259 net13
*2260 net130
*2261 net131
*2262 net132
*2263 net133
*2264 net134
*2265 net135
*2266 net136
*2267 net137
*2268 net138
*2269 net139
*2270 net14
*2271 net140
*2272 net141
*2273 net142
*2274 net143
*2275 net144
*2276 net145
*2277 net146
*2278 net147
*2279 net148
*2280 net149
*2281 net15
*2282 net150
*2283 net151
*2284 net152
*2285 net153
*2286 net154
*2287 net155
*2288 net156
*2289 net157
*2290 net158
*2291 net159
*2292 net16
*2293 net160
*2294 net161
*2295 net162
*2296 net163
*2297 net164
*2298 net165
*2299 net166
*2300 net167
*2301 net168
*2302 net169
*2303 net17
*2304 net170
*2305 net171
*2306 net172
*2307 net173
*2308 net174
*2309 net175
*2310 net176
*2311 net177
*2312 net178
*2313 net179
*2314 net18
*2315 net180
*2316 net181
*2317 net182
*2318 net183
*2319 net184
*2320 net185
*2321 net186
*2322 net187
*2323 net188
*2324 net189
*2325 net19
*2326 net190
*2327 net191
*2328 net192
*2329 net193